@<TRIPOS>MOLECULE
ZINC000003629271
26    27    1     0     0
SMALL
USER_CHARGES
@<TRIPOS>ATOM
1      N1     -0.0166    1.3721    0.0096 N.pl3    1 ZINC000003629271   -0.8000
2      C2      0.0021   -0.0041    0.0020 C.2      1 ZINC000003629271    0.5000
3      N3     -1.1353   -0.6865    0.0037 N.2      1 ZINC000003629271   -0.5900
4      C4     -1.1301   -2.0182   -0.0035 C.2      1 ZINC000003629271    0.6600
5      O5     -2.1902   -2.6221   -0.0021 O.2      1 ZINC000003629271   -0.5300
6      N6      0.0246   -2.7090   -0.0127 N.am     1 ZINC000003629271   -0.5200
7      C7     -0.0024   -4.1737   -0.0210 C.3      1 ZINC000003629271    0.3000
8      H8     -0.5150   -4.5289   -0.9150 H        1 ZINC000003629271    0.1200
9      C9     -0.7341   -4.6952    1.2492 C.3      1 ZINC000003629271   -0.1000
10     S10    -0.1015   -6.4218    1.3017 S.3      1 ZINC000003629271   -0.2600
11     C11     1.3749   -6.1033    0.2605 C.3      1 ZINC000003629271    0.1400
12     H12     1.3076   -6.6578   -0.6755 H        1 ZINC000003629271    0.1200
13     C13     2.6518   -6.4816    1.0137 C.3      1 ZINC000003629271    0.0900
14     O14     2.7315   -5.7274    2.2249 O.3      1 ZINC000003629271   -0.5600
15     O15     1.3371   -4.6851    0.0072 O.3      1 ZINC000003629271   -0.3700
16     C16     1.2207   -2.0521   -0.0148 C.2      1 ZINC000003629271    0.1800
17     C17     1.2316   -0.6971   -0.0134 C.2      1 ZINC000003629271   -0.0900
18     F18     2.4009   -0.0203   -0.0155 F        1 ZINC000003629271   -0.1200
19     H19     0.8168    1.8684    0.0043 H        1 ZINC000003629271    0.4200
20     H20    -0.8631    1.8456    0.0162 H        1 ZINC000003629271    0.4200
21     H21    -0.4337   -4.1369    2.1358 H        1 ZINC000003629271    0.1100
22     H22    -1.8160   -4.6742    1.1190 H        1 ZINC000003629271    0.1400
23     H23     2.6332   -7.5457    1.2489 H        1 ZINC000003629271    0.0800
24     H24     3.5193   -6.2621    0.3913 H        1 ZINC000003629271    0.0700
25     H25     3.5180   -5.9163    2.7548 H        1 ZINC000003629271    0.3900
26     H26     2.1479   -2.6058   -0.0218 H        1 ZINC000003629271    0.1900
@<TRIPOS>BOND
1     1     2     1
2     1     19    1
3     1     20    1
4     2     17    1
5     2     3     2
6     3     4     1
7     4     5     2
8     4     6     am
9     6     7     1
10    6     16    1
11    7     8     1
12    7     15    1
13    7     9     1
14    9     10    1
15    9     21    1
16    9     22    1
17    10    11    1
18    11    12    1
19    11    13    1
20    11    15    1
21    13    14    1
22    13    23    1
23    13    24    1
24    14    25    1
25    16    17    2
26    16    26    1
27    17    18    1
@<TRIPOS>SUBSTRUCTURE
1   ZINC000003629271 1     RESIDUE    1   A     ZIN   1
