@<TRIPOS>MOLECULE
ZINC000003805768
71   74    0    0    0
SMALL
USER_CHARGES
NO_NAME
@<TRIPOS>ATOM
1 C1       -0.0173     1.4248     0.0099 C.3    1 <0>       0.0200
2 O2        0.0021    -0.0041     0.0020 O.3    1 <0>      -0.3000
3 C3        0.6062    -0.6075    -1.0564 C.ar   1 <0>       0.1100
4 C4        1.1713     0.1603    -2.0593 C.ar   1 <0>      -0.1700
5 C5        1.7978    -0.4580    -3.1372 C.ar   1 <0>      -0.0800
6 C6        1.8630    -1.8184    -3.1883 C.ar   1 <0>      -0.0800
7 C7        1.2866    -2.6032    -2.2043 C.ar   1 <0>      -0.1600
8 C8        0.6603    -1.9967    -1.1265 C.ar   1 <0>       0.1100
9 O9        0.0939    -2.7539    -0.1492 O.3    1 <0>      -0.3000
10 C10       0.1805    -4.1728    -0.2955 C.3    1 <0>       0.0200
11 C11       2.6154    -2.4724    -4.3200 C.3    1 <0>      -0.0900
12 C12       1.9801    -2.1771    -5.6358 C.2    1 <0>       0.5300
13 O13       1.8168    -3.1244    -6.3754 O.2    1 <0>      -0.5600
14 N14       1.5771    -1.0156    -6.0877 N.am   1 <0>      -0.5900
15 C15       1.0559    -1.0632    -7.4560 C.3    1 <0>       0.0900
16 C16      -0.4486    -1.3393    -7.4193 C.3    1 <0>      -0.1600
17 C17      -0.9929    -1.3890    -8.8484 C.3    1 <0>      -0.0100
18 N18      -2.4374    -1.6541    -8.8132 N.4    1 <0>      -0.3800
19 H19      -2.6119    -2.4970    -8.2867 H      1 <0>       0.4300
20 C20      -3.1269    -0.5256    -8.1737 C.3    1 <0>      -0.0600
21 C21      -2.9382    -1.8207   -10.1841 C.3    1 <0>       0.0000
22 C22      -4.4147    -2.2194   -10.1428 C.3    1 <0>      -0.0600
23 H23      -4.6159    -2.9994    -9.4084 H      1 <0>       0.1200
24 C24      -5.3578    -1.0223   -10.0224 C.3    1 <0>      -0.0800
25 C25      -5.8393    -1.4401   -11.3962 C.ar   1 <0>      -0.1200
26 C26      -6.7142    -1.1553   -12.4374 C.ar   1 <0>      -0.1500
27 C27      -6.7321    -1.9472   -13.5714 C.ar   1 <0>       0.1200
28 O28      -7.5913    -1.6619   -14.5862 O.3    1 <0>      -0.3000
29 C29      -8.4464    -0.5301   -14.4134 C.3    1 <0>       0.0200
30 C30      -5.8710    -3.0352   -13.6744 C.ar   1 <0>       0.1100
31 O31      -5.8853    -3.8159   -14.7879 O.3    1 <0>      -0.3000
32 C32      -4.9726    -4.9149   -14.8214 C.3    1 <0>       0.0200
33 C33      -4.9988    -3.3183   -12.6362 C.ar   1 <0>      -0.1300
34 C34      -4.9848    -2.5257   -11.5047 C.ar   1 <0>      -0.1400
35 C35       1.5462     0.3068    -5.4971 C.3    1 <0>       0.1200
36 C36       2.3672     0.4034    -4.2256 C.3    1 <0>      -0.0900
37 H37       1.0053     1.8021     0.0021 H      1 <0>       0.0600
38 H38      -0.5445     1.7859    -0.8732 H      1 <0>       0.0500
39 H39      -0.5275     1.7763     0.9067 H      1 <0>       0.1100
40 H40       1.1258     1.2380    -2.0059 H      1 <0>       0.1400
41 H41       1.3278    -3.6802    -2.2739 H      1 <0>       0.1400
42 H42      -0.3095    -4.6558     0.5499 H      1 <0>       0.1100
43 H43      -0.3111    -4.4733    -1.2207 H      1 <0>       0.0500
44 H44       1.2283    -4.4715    -0.3272 H      1 <0>       0.0600
45 H45       3.6406    -2.1025    -4.3277 H      1 <0>       0.1100
46 H46       2.6276    -3.5511    -4.1638 H      1 <0>       0.1100
47 H47       1.2380    -0.1076    -7.9476 H      1 <0>       0.0900
48 H48       1.5577    -1.8575    -8.0085 H      1 <0>       0.1000
49 H49      -0.6307    -2.2949    -6.9277 H      1 <0>       0.0900
50 H50      -0.9504    -0.5450    -6.8668 H      1 <0>       0.0900
51 H51      -0.8108    -0.4334    -9.3400 H      1 <0>       0.1300
52 H52      -0.4911    -2.1834    -9.4009 H      1 <0>       0.1300
53 H53      -4.1987    -0.7223    -8.1476 H      1 <0>       0.1300
54 H54      -2.7553    -0.4020    -7.1565 H      1 <0>       0.1200
55 H55      -2.9383     0.3849    -8.7426 H      1 <0>       0.1200
56 H56      -2.8305    -0.8816   -10.7269 H      1 <0>       0.1400
57 H57      -2.3655    -2.5993   -10.6880 H      1 <0>       0.1400
58 H58      -6.1086    -1.1267    -9.2391 H      1 <0>       0.1100
59 H59      -4.8499    -0.0580   -10.0052 H      1 <0>       0.1000
60 H60      -7.3840    -0.3115   -12.3608 H      1 <0>       0.1400
61 H61      -7.8405     0.3664   -14.2820 H      1 <0>       0.0600
62 H62      -9.0792    -0.4151   -15.2934 H      1 <0>       0.1100
63 H63      -9.0718    -0.6782   -13.5330 H      1 <0>       0.0600
64 H64      -3.9518    -4.5421   -14.7382 H      1 <0>       0.0600
65 H65      -5.1828    -5.5873   -13.9896 H      1 <0>       0.0600
66 H66      -5.0871    -5.4537   -15.7620 H      1 <0>       0.1100
67 H67      -4.3281    -4.1615   -12.7106 H      1 <0>       0.1400
68 H68       1.9335     1.0240    -6.2208 H      1 <0>       0.0800
69 H69       0.5123     0.5654    -5.2683 H      1 <0>       0.0700
70 H70       2.3816     1.4399    -3.8887 H      1 <0>       0.1000
71 H71       3.3881     0.0842    -4.4357 H      1 <0>       0.0800
@<TRIPOS>BOND
1    1    2 1
2    1   37 1
3    1   38 1
4    1   39 1
5    2    3 1
6    3    8 ar
7    3    4 ar
8    4    5 ar
9    4   40 1
10    5   36 1
11    5    6 ar
12    6    7 ar
13    6   11 1
14    7    8 ar
15    7   41 1
16    8    9 1
17    9   10 1
18   10   42 1
19   10   43 1
20   10   44 1
21   11   12 1
22   11   45 1
23   11   46 1
24   12   13 2
25   12   14 am
26   14   15 1
27   14   35 1
28   15   16 1
29   15   47 1
30   15   48 1
31   16   17 1
32   16   49 1
33   16   50 1
34   17   18 1
35   17   51 1
36   17   52 1
37   18   19 1
38   18   20 1
39   18   21 1
40   20   53 1
41   20   54 1
42   20   55 1
43   21   22 1
44   21   56 1
45   21   57 1
46   22   23 1
47   22   34 1
48   22   24 1
49   24   25 1
50   24   58 1
51   24   59 1
52   25   34 ar
53   25   26 ar
54   26   27 ar
55   26   60 1
56   27   28 1
57   27   30 ar
58   28   29 1
59   29   61 1
60   29   62 1
61   29   63 1
62   30   31 1
63   30   33 ar
64   31   32 1
65   32   64 1
66   32   65 1
67   32   66 1
68   33   34 ar
69   33   67 1
70   35   36 1
71   35   68 1
72   35   69 1
73   36   70 1
74   36   71 1
