@<TRIPOS>MOLECULE
ZINC000000114124
20    19    1     0     0
SMALL
USER_CHARGES
@<TRIPOS>ATOM
1      C1     -0.0187    1.5258    0.0104 C.3      1 ZINC000000114124   -0.1400
2      C2      0.0021   -0.0041    0.0020 C.3      1 ZINC000000114124   -0.0100
3      C3      0.7421   -0.5109    1.2415 C.3      1 ZINC000000114124   -0.1600
4      S4     -1.6997   -0.6320    0.0149 S.3      1 ZINC000000114124   -0.2700
5      C5      0.7182   -0.4975   -1.2568 C.3      1 ZINC000000114124   -0.0300
6      H6      0.1910   -0.1364   -2.1398 H        1 ZINC000000114124    0.1400
7      N7      0.7381   -1.9663   -1.2649 N.4      1 ZINC000000114124   -0.6100
8      H8     -0.2085   -2.3156   -1.2577 H        1 ZINC000000114124    0.4200
9      H9      1.2104   -2.2917   -2.0950 H        1 ZINC000000114124    0.4300
10     H10     1.2261   -2.3006   -0.4474 H        1 ZINC000000114124    0.4300
11     C11     2.1320    0.0241   -1.2675 C.2      1 ZINC000000114124    0.5000
12     O12     3.0254   -0.6256   -0.7515 O.co2    1 ZINC000000114124   -0.6600
13     O13     2.3824    1.0959   -1.7921 O.co2    1 ZINC000000114124   -0.6300
14     H14     1.0039    1.9031    0.0027 H        1 ZINC000000114124    0.0900
15     H15    -0.5459    1.8868   -0.8726 H        1 ZINC000000114124    0.0800
16     H16    -0.5289    1.8773    0.9072 H        1 ZINC000000114124    0.0600
17     H17     0.2319   -0.1594    2.1383 H        1 ZINC000000114124    0.0700
18     H18     0.7568   -1.6008    1.2356 H        1 ZINC000000114124    0.0600
19     H19     1.7647   -0.1336    1.2338 H        1 ZINC000000114124    0.1000
20     H20    -2.1995   -0.1280    1.1574 H        1 ZINC000000114124    0.1300
@<TRIPOS>BOND
1     1     2     1
2     1     14    1
3     1     15    1
4     1     16    1
5     2     3     1
6     2     4     1
7     2     5     1
8     3     17    1
9     3     18    1
10    3     19    1
11    4     20    1
12    5     6     1
13    5     7     1
14    5     11    1
15    7     8     1
16    7     9     1
17    7     10    1
18    11    12    ar
19    11    13    ar
@<TRIPOS>SUBSTRUCTURE
1   ZINC000000114124 1     RESIDUE    1   A     ZIN   1
