@<TRIPOS>MOLECULE
ZINC000003920027
65    68    1     0     0
SMALL
USER_CHARGES
@<TRIPOS>ATOM
1      C1     -2.4219   -0.9355   -0.3941 C.3      1 ZINC000003920027   -0.1400
2      C2     -1.5296   -2.1776   -0.4381 C.3      1 ZINC000003920027   -0.1200
3      C3     -0.7774   -2.3020    0.8619 C.2      1 ZINC000003920027    0.4600
4      O4     -0.9386   -1.4815    1.7340 O.2      1 ZINC000003920027   -0.4900
5      O5      0.0715   -3.3244    1.0508 O.3      1 ZINC000003920027   -0.3300
6      C6      0.8296   -3.3315    2.2892 C.3      1 ZINC000003920027    0.1200
7      C7     -0.0972   -3.1868    3.4687 C.2      1 ZINC000003920027    0.3500
8      O8      0.2451   -2.5345    4.4327 O.2      1 ZINC000003920027   -0.4200
9      S9     -1.6331   -3.9428    3.4483 S.3      1 ZINC000003920027   -0.1500
10     C10    -2.2576   -3.4295    5.0677 C.3      1 ZINC000003920027    0.0800
11     F11    -2.6351   -2.0833    5.0166 F        1 ZINC000003920027   -0.1800
12     C12     1.8770   -2.1902    2.2839 C.3      1 ZINC000003920027   -0.1000
13     H13     1.7511   -1.5628    3.1663 H        1 ZINC000003920027    0.1000
14     C14     1.7289   -1.3474    1.0155 C.3      1 ZINC000003920027   -0.1700
15     C15     3.2709   -2.8746    2.3109 C.3      1 ZINC000003920027   -0.1100
16     C16     2.9841   -4.2606    1.7231 C.3      1 ZINC000003920027   -0.0800
17     H17     2.8570   -4.1955    0.6425 H        1 ZINC000003920027    0.0900
18     C18     3.9861   -5.3463    2.0718 C.3      1 ZINC000003920027   -0.1000
19     H19     4.0521   -5.4517    3.1547 H        1 ZINC000003920027    0.1200
20     C20     5.3602   -4.9875    1.5036 C.3      1 ZINC000003920027   -0.1400
21     C21     6.3763   -6.0672    1.8894 C.3      1 ZINC000003920027    0.1300
22     H22     6.5022   -6.0842    2.9719 H        1 ZINC000003920027    0.1100
23     F23     7.6047   -5.8010    1.2751 F        1 ZINC000003920027   -0.2000
24     C24     5.8441   -7.4062    1.4142 C.2      1 ZINC000003920027   -0.0800
25     C25     6.6268   -8.1843    0.6795 C.2      1 ZINC000003920027   -0.1900
26     C26     6.1389   -9.4803    0.1829 C.2      1 ZINC000003920027    0.4100
27     O27     6.8670  -10.2151   -0.4580 O.2      1 ZINC000003920027   -0.4500
28     C28     4.7496   -9.8684    0.4794 C.2      1 ZINC000003920027   -0.2100
29     C29     3.9883   -9.0788    1.2206 C.2      1 ZINC000003920027   -0.0700
30     C30     4.4470   -7.7871    1.8056 C.3      1 ZINC000003920027   -0.0200
31     C31     4.4093   -7.9236    3.3290 C.3      1 ZINC000003920027   -0.1400
32     C32     3.4758   -6.6575    1.4533 C.3      1 ZINC000003920027    0.1600
33     F33     3.4327   -6.5045    0.0633 F        1 ZINC000003920027   -0.1900
34     C34     2.0775   -7.0234    1.9424 C.3      1 ZINC000003920027    0.0900
35     H35     1.7287   -7.9011    1.3982 H        1 ZINC000003920027    0.0800
36     O36     2.1372   -7.3327    3.3362 O.3      1 ZINC000003920027   -0.5400
37     C37     1.0820   -5.8722    1.7280 C.3      1 ZINC000003920027   -0.1300
38     C38     1.6375   -4.6199    2.4069 C.3      1 ZINC000003920027   -0.0400
39     C39     1.9442   -4.9192    3.8757 C.3      1 ZINC000003920027   -0.1700
40     H40    -1.8045   -0.0496   -0.2453 H        1 ZINC000003920027    0.0600
41     H41    -2.9660   -0.8455   -1.3343 H        1 ZINC000003920027    0.0700
42     H42    -3.1310   -1.0266    0.4287 H        1 ZINC000003920027    0.0700
43     H43    -2.1470   -3.0634   -0.5868 H        1 ZINC000003920027    0.1100
44     H44    -0.8205   -2.0865   -1.2608 H        1 ZINC000003920027    0.1100
45     H45    -3.1211   -4.0391    5.3340 H        1 ZINC000003920027    0.1300
46     H46    -1.4762   -3.5596    5.8164 H        1 ZINC000003920027    0.1100
47     H47     0.7883   -0.7979    1.0522 H        1 ZINC000003920027    0.0700
48     H48     2.5585   -0.6437    0.9480 H        1 ZINC000003920027    0.0700
49     H49     1.7343   -2.0004    0.1428 H        1 ZINC000003920027    0.0600
50     H50     3.9799   -2.3303    1.6870 H        1 ZINC000003920027    0.0800
51     H51     3.6399   -2.9580    3.3331 H        1 ZINC000003920027    0.0800
52     H52     5.2972   -4.9202    0.4175 H        1 ZINC000003920027    0.0900
53     H53     5.6804   -4.0272    1.9078 H        1 ZINC000003920027    0.0900
54     H54     7.6307   -7.8639    0.4434 H        1 ZINC000003920027    0.1500
55     H55     4.3524  -10.7952    0.0925 H        1 ZINC000003920027    0.1400
56     H56     2.9722   -9.3898    1.4133 H        1 ZINC000003920027    0.1300
57     H57     5.3105   -8.4329    3.6706 H        1 ZINC000003920027    0.0600
58     H58     4.3581   -6.9333    3.7814 H        1 ZINC000003920027    0.0800
59     H59     3.5326   -8.5020    3.6204 H        1 ZINC000003920027    0.1100
60     H60     1.2845   -7.5759    3.7220 H        1 ZINC000003920027    0.3800
61     H61     0.9910   -5.6535    0.6641 H        1 ZINC000003920027    0.0900
62     H62     0.1084   -6.1426    2.1368 H        1 ZINC000003920027    0.0900
63     H63     2.7548   -5.6453    3.9369 H        1 ZINC000003920027    0.1100
64     H64     2.2414   -3.9995    4.3796 H        1 ZINC000003920027    0.0600
65     H65     1.0548   -5.3261    4.3569 H        1 ZINC000003920027    0.0600
@<TRIPOS>BOND
1     1     2     1
2     1     40    1
3     1     41    1
4     1     42    1
5     2     3     1
6     2     43    1
7     2     44    1
8     3     4     2
9     3     5     1
10    5     6     1
11    6     38    1
12    6     7     1
13    6     12    1
14    7     8     2
15    7     9     1
16    9     10    1
17    10    11    1
18    10    45    1
19    10    46    1
20    12    13    1
21    12    14    1
22    12    15    1
23    14    47    1
24    14    48    1
25    14    49    1
26    15    16    1
27    15    50    1
28    15    51    1
29    16    17    1
30    16    38    1
31    16    18    1
32    18    19    1
33    18    32    1
34    18    20    1
35    20    21    1
36    20    52    1
37    20    53    1
38    21    22    1
39    21    23    1
40    21    24    1
41    24    30    1
42    24    25    2
43    25    26    1
44    25    54    1
45    26    27    2
46    26    28    1
47    28    29    2
48    28    55    1
49    29    30    1
50    29    56    1
51    30    31    1
52    30    32    1
53    31    57    1
54    31    58    1
55    31    59    1
56    32    33    1
57    32    34    1
58    34    35    1
59    34    36    1
60    34    37    1
61    36    60    1
62    37    38    1
63    37    61    1
64    37    62    1
65    38    39    1
66    39    63    1
67    39    64    1
68    39    65    1
@<TRIPOS>SUBSTRUCTURE
1   ZINC000003920027 1     RESIDUE    1   A     ZIN   1
