@<TRIPOS>MOLECULE
ZINC000009164421
75    78    1     0     0
SMALL
USER_CHARGES
@<TRIPOS>ATOM
1      C1     -1.6859   -2.0459    4.2067 C.3      1 ZINC000009164421    0.0800
2      N2     -1.6596   -0.5917    4.3820 N.pl3    1 ZINC000009164421   -0.3800
3      C3     -2.4361    0.1259    5.2374 C.2      1 ZINC000009164421    0.4300
4      N4     -3.4008   -0.3874    6.1054 N.pl3    1 ZINC000009164421   -0.8200
5      C5     -2.0985    1.4401    5.0912 C.2      1 ZINC000009164421   -0.0500
6      N6     -2.6637    2.5279    5.7930 N.am     1 ZINC000009164421   -0.6500
7      C7     -2.2352    3.7824    5.5501 C.2      1 ZINC000009164421    0.7000
8      O8     -1.3618    3.9779    4.7267 O.2      1 ZINC000009164421   -0.5300
9      N9     -2.7745    4.8203    6.2197 N.am     1 ZINC000009164421   -0.7400
10     C10    -2.3086    6.1840    5.9556 C.3      1 ZINC000009164421    0.1100
11     C11    -3.0778    7.1662    6.8413 C.3      1 ZINC000009164421   -0.0200
12     N12    -2.6107    8.5335    6.5765 N.4      1 ZINC000009164421   -0.6300
13     H13    -1.6247    8.5976    6.7808 H        1 ZINC000009164421    0.4400
14     H14    -2.7686    8.7609    5.6062 H        1 ZINC000009164421    0.4400
15     H15    -3.1180    9.1813    7.1606 H        1 ZINC000009164421    0.4400
16     C16    -1.0912    1.5174    4.1217 C.2      1 ZINC000009164421    0.2300
17     N17    -0.8260    0.3057    3.7027 N.2      1 ZINC000009164421   -0.2400
18     C18     0.1687   -0.0505    2.6879 C.3      1 ZINC000009164421    0.1100
19     C19     1.5164   -0.2160    3.3417 C.2      1 ZINC000009164421   -0.2600
20     C20     2.2145    0.8975    3.5257 C.2      1 ZINC000009164421    0.1700
21     C21     1.6816    2.1851    3.0516 C.2      1 ZINC000009164421    0.5200
22     O22     0.6338    2.2185    2.4208 O.co2    1 ZINC000009164421   -0.6600
23     O23     2.2865    3.2219    3.2882 O.co2    1 ZINC000009164421   -0.6000
24     N24     3.4574    0.8504    4.1707 N.am     1 ZINC000009164421   -0.5600
25     C25     4.3110    1.5839    4.8740 C.2      1 ZINC000009164421    0.5200
26     O26     4.4530    2.7832    4.9865 O.2      1 ZINC000009164421   -0.4200
27     C27     5.0452    0.4143    5.4868 C.3      1 ZINC000009164421    0.1400
28     H28     6.1274    0.4453    5.3602 H        1 ZINC000009164421    0.1600
29     N29     4.6274    0.0846    6.8516 N.am     1 ZINC000009164421   -0.6900
30     C30     5.3590    0.5083    7.9013 C.2      1 ZINC000009164421    0.5300
31     O31     6.3089    1.2447    7.7221 O.2      1 ZINC000009164421   -0.4600
32     C32     5.0052    0.0762    9.2733 C.2      1 ZINC000009164421    0.1100
33     N33     5.6296    0.5834   10.2966 N.2      1 ZINC000009164421   -0.2100
34     O34     6.5677    1.6270   10.1075 O.3      1 ZINC000009164421   -0.1200
35     C35     7.2586    2.0103   11.2983 C.3      1 ZINC000009164421    0.0300
36     C36     6.2425    2.3781   12.3814 C.3      1 ZINC000009164421   -0.1400
37     C37     8.1226    0.8448   11.7841 C.3      1 ZINC000009164421   -0.1500
38     C38     8.1369    3.2001   11.0085 C.2      1 ZINC000009164421    0.5200
39     O39     8.2385    3.6195    9.8683 O.co2    1 ZINC000009164421   -0.6600
40     O40     8.7458    3.7433   11.9144 O.co2    1 ZINC000009164421   -0.6800
41     C41     3.9410   -0.9329    9.4807 C.2      1 ZINC000009164421    0.3800
42     N42     3.3816   -1.5492    8.4689 N.2      1 ZINC000009164421   -0.4900
43     S43     2.2338   -2.6026    9.1473 S.3      1 ZINC000009164421    0.2000
44     C44     2.5720   -2.1520   10.7750 C.2      1 ZINC000009164421    0.3500
45     N45     1.9744   -2.6401   11.9225 N.pl3    1 ZINC000009164421   -0.7900
46     N46     3.5232   -1.2499   10.6934 N.2      1 ZINC000009164421   -0.5500
47     C47     4.3080   -0.3503    4.4016 C.3      1 ZINC000009164421    0.1200
48     H48     4.9272   -0.6422    3.5535 H        1 ZINC000009164421    0.1500
49     S49     3.2015   -1.6753    4.9915 S.3      1 ZINC000009164421   -0.2000
50     C50     1.8994   -1.6125    3.7082 C.3      1 ZINC000009164421   -0.0300
51     H51    -0.9221   -2.5017    4.8367 H        1 ZINC000009164421    0.1000
52     H52    -2.6665   -2.4284    4.4902 H        1 ZINC000009164421    0.1100
53     H53    -1.4888   -2.2897    3.1628 H        1 ZINC000009164421    0.1100
54     H54    -3.5673   -1.3426    6.1353 H        1 ZINC000009164421    0.4200
55     H55    -3.9047    0.2109    6.6789 H        1 ZINC000009164421    0.4300
56     H56    -3.3604    2.3720    6.4498 H        1 ZINC000009164421    0.4100
57     H57    -3.4711    4.6645    6.8764 H        1 ZINC000009164421    0.4000
58     H58    -1.2435    6.2531    6.1763 H        1 ZINC000009164421    0.1000
59     H59    -2.4792    6.4296    4.9074 H        1 ZINC000009164421    0.1000
60     H60    -4.1430    7.0970    6.6206 H        1 ZINC000009164421    0.1400
61     H61    -2.9073    6.9206    7.8895 H        1 ZINC000009164421    0.1400
62     H62    -0.6117    2.4228    3.7801 H        1 ZINC000009164421    0.2700
63     H63    -0.1200   -0.9860    2.2088 H        1 ZINC000009164421    0.0900
64     H64     0.2228    0.7397    1.9390 H        1 ZINC000009164421    0.2200
65     H65     3.8242   -0.4386    6.9999 H        1 ZINC000009164421    0.4200
66     H66     5.6073    1.5175   12.5910 H        1 ZINC000009164421    0.0500
67     H67     6.7695    2.6705   13.2897 H        1 ZINC000009164421    0.0700
68     H68     5.6270    3.2084   12.0353 H        1 ZINC000009164421    0.0500
69     H69     8.8465    0.5828   11.0125 H        1 ZINC000009164421    0.0500
70     H70     8.6496    1.1372   12.6924 H        1 ZINC000009164421    0.0700
71     H71     7.4873   -0.0158   11.9937 H        1 ZINC000009164421    0.0500
72     H72     1.2796   -3.3140   11.8584 H        1 ZINC000009164421    0.4200
73     H73     2.2498   -2.3086   12.7914 H        1 ZINC000009164421    0.4200
74     H74     1.0221   -2.1504    4.0676 H        1 ZINC000009164421    0.1000
75     H75     2.2675   -2.1018    2.8064 H        1 ZINC000009164421    0.1000
@<TRIPOS>BOND
1     1     2     1
2     1     51    1
3     1     52    1
4     1     53    1
5     2     17    1
6     2     3     1
7     3     4     1
8     3     5     2
9     4     54    1
10    4     55    1
11    5     6     1
12    5     16    1
13    6     7     am
14    6     56    1
15    7     8     2
16    7     9     am
17    9     10    1
18    9     57    1
19    10    11    1
20    10    58    1
21    10    59    1
22    11    12    1
23    11    60    1
24    11    61    1
25    12    13    1
26    12    14    1
27    12    15    1
28    16    17    2
29    16    62    1
30    17    18    1
31    18    19    1
32    18    63    1
33    18    64    1
34    19    50    1
35    19    20    2
36    20    21    1
37    20    24    1
38    21    22    ar
39    21    23    ar
40    24    47    1
41    24    25    am
42    25    26    2
43    25    27    1
44    27    28    1
45    27    29    1
46    27    47    1
47    29    30    am
48    29    65    1
49    30    31    2
50    30    32    1
51    32    33    2
52    32    41    1
53    33    34    1
54    34    35    1
55    35    36    1
56    35    37    1
57    35    38    1
58    36    66    1
59    36    67    1
60    36    68    1
61    37    69    1
62    37    70    1
63    37    71    1
64    38    39    ar
65    38    40    ar
66    41    46    1
67    41    42    2
68    42    43    1
69    43    44    1
70    44    45    1
71    44    46    2
72    45    72    1
73    45    73    1
74    47    48    1
75    47    49    1
76    49    50    1
77    50    74    1
78    50    75    1
@<TRIPOS>SUBSTRUCTURE
1   ZINC000009164421 1     RESIDUE    1   A     ZIN   1
