@<TRIPOS>MOLECULE
ZINC000000389747
45    49    1     0     0
SMALL
USER_CHARGES
@<TRIPOS>ATOM
1      C1     -0.0157    1.3058    0.0092 C.2      1 ZINC000000389747   -0.1800
2      C2      0.0021   -0.0041    0.0020 C.2      1 ZINC000000389747   -0.1500
3      C3      1.3172   -0.7397   -0.0145 C.3      1 ZINC000000389747    0.0800
4      N4      1.3676   -1.6781    1.1146 N.3      1 ZINC000000389747   -0.5200
5      C5      0.3472   -2.7232    0.9755 C.3      1 ZINC000000389747    0.0500
6      C6      0.3452   -3.6185    2.2207 C.3      1 ZINC000000389747   -0.1000
7      C7      1.7448   -4.2035    2.3967 C.3      1 ZINC000000389747   -0.0200
8      C8      2.1419   -4.9554    1.1505 C.ar     1 ZINC000000389747   -0.1700
9      C9      2.7529   -4.4324    0.0342 C.ar     1 ZINC000000389747   -0.0300
10     C10     3.0050   -5.3272   -0.9911 C.ar     1 ZINC000000389747   -0.1300
11     C11     2.7009   -6.6695   -0.8362 C.ar     1 ZINC000000389747   -0.1000
12     C12     2.1571   -7.1991    0.3322 C.ar     1 ZINC000000389747    0.0900
13     O13     1.8990   -8.5285    0.4567 O.3      1 ZINC000000389747   -0.4800
14     C14     1.8884   -6.3017    1.3718 C.ar     1 ZINC000000389747    0.0900
15     O15     1.4396   -6.4926    2.6310 O.3      1 ZINC000000389747   -0.2700
16     C16     1.7688   -5.3191    3.4331 C.3      1 ZINC000000389747    0.0600
17     H17     1.0278   -5.1501    4.2145 H        1 ZINC000000389747    0.1500
18     C18     3.1318   -5.5455    4.0169 C.2      1 ZINC000000389747    0.3500
19     O19     3.3901   -6.6349    4.4696 O.2      1 ZINC000000389747   -0.4300
20     C20     4.1887   -4.4834    4.0646 C.3      1 ZINC000000389747   -0.1600
21     C21     4.1831   -3.6835    2.7604 C.3      1 ZINC000000389747   -0.1400
22     C22     2.7619   -3.0842    2.5491 C.3      1 ZINC000000389747    0.1700
23     O23     2.4136   -2.2715    3.6718 O.3      1 ZINC000000389747   -0.5300
24     C24     2.7151   -2.2389    1.2730 C.3      1 ZINC000000389747    0.0700
25     H25     3.4092   -1.4076    1.3971 H        1 ZINC000000389747    0.0900
26     C26     3.1291   -2.9862    0.0162 C.3      1 ZINC000000389747   -0.1100
27     H27     0.9122    1.8585    0.0033 H        1 ZINC000000389747    0.1000
28     H28    -0.9582    1.8330    0.0166 H        1 ZINC000000389747    0.1000
29     H29    -0.9258   -0.5567    0.0079 H        1 ZINC000000389747    0.1100
30     H30     1.4134   -1.2911   -0.9498 H        1 ZINC000000389747    0.0500
31     H31     2.1349   -0.0241    0.0711 H        1 ZINC000000389747    0.0800
32     H32    -0.6327   -2.2597    0.8611 H        1 ZINC000000389747    0.0800
33     H33     0.5656   -3.3277    0.0952 H        1 ZINC000000389747    0.0400
34     H34     0.0817   -3.0270    3.0975 H        1 ZINC000000389747    0.0900
35     H35    -0.3762   -4.4253    2.0913 H        1 ZINC000000389747    0.0700
36     H36     3.4402   -4.9774   -1.9156 H        1 ZINC000000389747    0.1300
37     H37     2.8945   -7.3385   -1.6617 H        1 ZINC000000389747    0.1400
38     H38     2.6376   -9.0408    0.8133 H        1 ZINC000000389747    0.3900
39     H39     3.9910   -3.8133    4.9012 H        1 ZINC000000389747    0.1100
40     H40     5.1647   -4.9498    4.1990 H        1 ZINC000000389747    0.1000
41     H41     4.9146   -2.8778    2.8223 H        1 ZINC000000389747    0.0900
42     H42     4.4297   -4.3412    1.9269 H        1 ZINC000000389747    0.0800
43     H43     3.0157   -1.5299    3.8223 H        1 ZINC000000389747    0.3800
44     H44     4.2104   -2.9079   -0.0967 H        1 ZINC000000389747    0.0900
45     H45     2.6555   -2.5127   -0.8438 H        1 ZINC000000389747    0.0900
@<TRIPOS>BOND
1     1     2     2
2     1     27    1
3     1     28    1
4     2     3     1
5     2     29    1
6     3     4     1
7     3     30    1
8     3     31    1
9     4     24    1
10    4     5     1
11    5     6     1
12    5     32    1
13    5     33    1
14    6     7     1
15    6     34    1
16    6     35    1
17    7     16    1
18    7     22    1
19    7     8     1
20    8     14    ar
21    8     9     ar
22    9     26    1
23    9     10    ar
24    10    11    ar
25    10    36    1
26    11    12    ar
27    11    37    1
28    12    13    1
29    12    14    ar
30    13    38    1
31    14    15    1
32    15    16    1
33    16    17    1
34    16    18    1
35    18    19    2
36    18    20    1
37    20    21    1
38    20    39    1
39    20    40    1
40    21    22    1
41    21    41    1
42    21    42    1
43    22    23    1
44    22    24    1
45    23    43    1
46    24    25    1
47    24    26    1
48    26    44    1
49    26    45    1
@<TRIPOS>SUBSTRUCTURE
1   ZINC000000389747 1     RESIDUE    1   A     ZIN   1
