@<TRIPOS>MOLECULE
ZINC000003955219
75    78    1     0     0
SMALL
USER_CHARGES
@<TRIPOS>ATOM
1      C1      0.3678    1.5405   -0.4401 C.3      1 ZINC000003955219   -0.1500
2      C2      0.2023    0.0940    0.0302 C.3      1 ZINC000003955219   -0.1200
3      C3      1.0205   -0.1248    1.3044 C.3      1 ZINC000003955219   -0.1500
4      C4     -1.2746   -0.1827    0.3186 C.3      1 ZINC000003955219    0.1200
5      N5     -1.4537   -1.6032    0.6292 N.am     1 ZINC000003955219   -0.9900
6      C6     -1.2714   -2.0816    2.0018 C.3      1 ZINC000003955219    0.0900
7      C7     -2.5657   -1.8731    2.7906 C.3      1 ZINC000003955219    0.0800
8      H8     -2.8629   -0.8261    2.7311 H        1 ZINC000003955219    0.1100
9      O9     -3.5975   -2.6932    2.2383 O.3      1 ZINC000003955219   -0.5500
10     C10    -2.3383   -2.2563    4.2543 C.3      1 ZINC000003955219    0.1400
11     H11    -1.4927   -1.6936    4.6500 H        1 ZINC000003955219    0.1000
12     C12    -2.0432   -3.7545    4.3493 C.3      1 ZINC000003955219   -0.1100
13     C13    -1.6987   -4.1094    5.7728 C.ar     1 ZINC000003955219   -0.0600
14     C14    -0.3854   -4.0534    6.2006 C.ar     1 ZINC000003955219   -0.1000
15     C15    -0.0693   -4.3788    7.5064 C.ar     1 ZINC000003955219   -0.1100
16     C16    -1.0666   -4.7599    8.3845 C.ar     1 ZINC000003955219   -0.1200
17     C17    -2.3801   -4.8150    7.9570 C.ar     1 ZINC000003955219   -0.1200
18     C18    -2.6966   -4.4854    6.6524 C.ar     1 ZINC000003955219   -0.1100
19     N19    -3.5395   -1.9448    5.0330 N.am     1 ZINC000003955219   -0.7000
20     C20    -3.4425   -1.7103    6.3566 C.2      1 ZINC000003955219    0.6400
21     O21    -2.3588   -1.7572    6.9042 O.2      1 ZINC000003955219   -0.5500
22     O22    -4.5464   -1.4240    7.0722 O.3      1 ZINC000003955219   -0.3500
23     C23    -4.3670   -1.1828    8.4927 C.3      1 ZINC000003955219    0.0900
24     H24    -3.5115   -1.7431    8.8699 H        1 ZINC000003955219    0.1100
25     C25    -4.1903    0.3278    8.7684 C.3      1 ZINC000003955219    0.0400
26     O26    -5.5307    0.8085    9.0033 O.3      1 ZINC000003955219   -0.3700
27     C27    -6.1708   -0.1975    9.8193 C.3      1 ZINC000003955219    0.2300
28     H28    -5.9371   -0.0702   10.8763 H        1 ZINC000003955219    0.1100
29     O29    -7.5834   -0.1398    9.5761 O.3      1 ZINC000003955219   -0.3600
30     C30    -8.0300   -1.3733    8.9897 C.3      1 ZINC000003955219    0.0500
31     C31    -6.7853   -1.9364    8.2566 C.3      1 ZINC000003955219   -0.1400
32     C32    -5.6443   -1.5567    9.2707 C.3      1 ZINC000003955219   -0.1500
33     H33    -5.4833   -2.3146   10.0374 H        1 ZINC000003955219    0.1200
34     S34    -1.8621   -2.6681   -0.5714 S.o2     1 ZINC000003955219    2.7000
35     O35    -2.4872   -3.7728    0.0676 O.2      1 ZINC000003955219   -0.9500
36     O36    -2.4903   -1.9024   -1.5904 O.2      1 ZINC000003955219   -0.9600
37     C37    -0.3597   -3.2774   -1.2616 C.ar     1 ZINC000003955219   -0.7400
38     C38     0.2300   -2.6158   -2.3231 C.ar     1 ZINC000003955219    0.0300
39     C39     1.4075   -3.0906   -2.8664 C.ar     1 ZINC000003955219   -0.2200
40     C40     1.9996   -4.2341   -2.3453 C.ar     1 ZINC000003955219    0.2700
41     N41     3.1908   -4.7168   -2.8921 N.pl3    1 ZINC000003955219   -0.8700
42     C42     1.4045   -4.8962   -1.2789 C.ar     1 ZINC000003955219   -0.2200
43     C43     0.2300   -4.4128   -0.7368 C.ar     1 ZINC000003955219    0.0300
44     H44     1.4199    1.7376   -0.6456 H        1 ZINC000003955219    0.0600
45     H45    -0.2151    1.6964   -1.3478 H        1 ZINC000003955219    0.0600
46     H46     0.0164    2.2180    0.3381 H        1 ZINC000003955219    0.0600
47     H47     0.5537   -0.5835   -0.7480 H        1 ZINC000003955219    0.0700
48     H48     1.0168   -1.1841    1.5612 H        1 ZINC000003955219    0.0600
49     H49     2.0460    0.2053    1.1388 H        1 ZINC000003955219    0.0500
50     H50     0.5816    0.4485    2.1209 H        1 ZINC000003955219    0.0600
51     H51    -1.5976    0.4185    1.1685 H        1 ZINC000003955219    0.0900
52     H52    -1.8704    0.0758   -0.5568 H        1 ZINC000003955219    0.1000
53     H53    -1.0220   -3.1425    1.9867 H        1 ZINC000003955219    0.0900
54     H54    -0.4632   -1.5250    2.4762 H        1 ZINC000003955219    0.1000
55     H55    -3.4005   -3.6397    2.2582 H        1 ZINC000003955219    0.3900
56     H56    -2.9221   -4.3185    4.0368 H        1 ZINC000003955219    0.0800
57     H57    -1.2033   -4.0013    3.6999 H        1 ZINC000003955219    0.0900
58     H58     0.3938   -3.7557    5.5146 H        1 ZINC000003955219    0.1200
59     H59     0.9568   -4.3358    7.8405 H        1 ZINC000003955219    0.1200
60     H60    -0.8196   -5.0149    9.4045 H        1 ZINC000003955219    0.1200
61     H61    -3.1592   -5.1131    8.6429 H        1 ZINC000003955219    0.1100
62     H62    -3.7228   -4.5285    6.3183 H        1 ZINC000003955219    0.1100
63     H63    -4.4046   -1.9073    4.5959 H        1 ZINC000003955219    0.4100
64     H64    -3.5696    0.4839    9.6507 H        1 ZINC000003955219    0.0800
65     H65    -3.7539    0.8246    7.9019 H        1 ZINC000003955219    0.1000
66     H66    -8.3588   -2.0651    9.7653 H        1 ZINC000003955219    0.0700
67     H67    -8.8361   -1.1863    8.2802 H        1 ZINC000003955219    0.0900
68     H68    -6.8543   -3.0177    8.1377 H        1 ZINC000003955219    0.0900
69     H69    -6.6398   -1.4453    7.2944 H        1 ZINC000003955219    0.1000
70     H70    -0.2311   -1.7270   -2.7280 H        1 ZINC000003955219    0.1400
71     H71     1.8674   -2.5737   -3.6957 H        1 ZINC000003955219    0.1300
72     H72     3.6055   -4.2535   -3.6365 H        1 ZINC000003955219    0.4000
73     H73     3.6033   -5.5154   -2.5274 H        1 ZINC000003955219    0.4000
74     H74     1.8620   -5.7857   -0.8717 H        1 ZINC000003955219    0.1300
75     H75    -0.2332   -4.9270    0.0923 H        1 ZINC000003955219    0.1400
@<TRIPOS>BOND
1     1     2     1
2     1     44    1
3     1     45    1
4     1     46    1
5     2     3     1
6     2     4     1
7     2     47    1
8     3     48    1
9     3     49    1
10    3     50    1
11    4     5     1
12    4     51    1
13    4     52    1
14    5     6     1
15    5     34    am
16    6     7     1
17    6     53    1
18    6     54    1
19    7     8     1
20    7     9     1
21    7     10    1
22    9     55    1
23    10    11    1
24    10    12    1
25    10    19    1
26    12    13    1
27    12    56    1
28    12    57    1
29    13    18    ar
30    13    14    ar
31    14    15    ar
32    14    58    1
33    15    16    ar
34    15    59    1
35    16    17    ar
36    16    60    1
37    17    18    ar
38    17    61    1
39    18    62    1
40    19    20    am
41    19    63    1
42    20    21    2
43    20    22    1
44    22    23    1
45    23    24    1
46    23    32    1
47    23    25    1
48    25    26    1
49    25    64    1
50    25    65    1
51    26    27    1
52    27    28    1
53    27    32    1
54    27    29    1
55    29    30    1
56    30    31    1
57    30    66    1
58    30    67    1
59    31    32    1
60    31    68    1
61    31    69    1
62    32    33    1
63    34    35    2
64    34    36    2
65    34    37    1
66    37    43    ar
67    37    38    ar
68    38    39    ar
69    38    70    1
70    39    40    ar
71    39    71    1
72    40    41    1
73    40    42    ar
74    41    72    1
75    41    73    1
76    42    43    ar
77    42    74    1
78    43    75    1
@<TRIPOS>SUBSTRUCTURE
1   ZINC000003955219 1     RESIDUE    1   A     ZIN   1
