@<TRIPOS>MOLECULE
ZINC000002561203
33    33    1     0     0
SMALL
USER_CHARGES
@<TRIPOS>ATOM
1      C1     -0.0187    1.5258    0.0104 C.3      1 ZINC000002561203   -0.1500
2      C2      0.0021   -0.0041    0.0020 C.3      1 ZINC000002561203   -0.1200
3      C3      0.7182   -0.4975   -1.2568 C.3      1 ZINC000002561203   -0.1200
4      C4      0.7390   -2.0273   -1.2652 C.3      1 ZINC000002561203    0.0600
5      O5      1.4078   -2.4882   -2.4409 O.3      1 ZINC000002561203   -0.3800
6      C6      1.4826   -3.9113   -2.5470 C.3      1 ZINC000002561203    0.1000
7      C7      2.2038   -4.2831   -3.8169 C.ar     1 ZINC000002561203   -0.0600
8      C8      1.4915   -4.4586   -4.9882 C.ar     1 ZINC000002561203   -0.1200
9      C9      2.1485   -4.8003   -6.1561 C.ar     1 ZINC000002561203   -0.1100
10     C10     3.5237   -4.9670   -6.1537 C.ar     1 ZINC000002561203    0.0800
11     O11     4.1714   -5.3026   -7.3014 O.3      1 ZINC000002561203   -0.4900
12     C12     4.2411   -4.7898   -4.9741 C.ar     1 ZINC000002561203    0.1000
13     O13     5.5914   -4.9518   -4.9669 O.3      1 ZINC000002561203   -0.3100
14     C14     6.2618   -4.7539   -3.7205 C.3      1 ZINC000002561203    0.0200
15     C15     3.5774   -4.4424   -3.8089 C.ar     1 ZINC000002561203   -0.1700
16     H16     1.0039    1.9031    0.0027 H        1 ZINC000002561203    0.0600
17     H17    -0.5459    1.8868   -0.8726 H        1 ZINC000002561203    0.0600
18     H18    -0.5289    1.8773    0.9072 H        1 ZINC000002561203    0.0600
19     H19     0.5293   -0.3651    0.8851 H        1 ZINC000002561203    0.0600
20     H20    -1.0205   -0.3814    0.0098 H        1 ZINC000002561203    0.0600
21     H21     0.1910   -0.1364   -2.1398 H        1 ZINC000002561203    0.0700
22     H22     1.7408   -0.1202   -1.2645 H        1 ZINC000002561203    0.0700
23     H23     1.2661   -2.3884   -0.3821 H        1 ZINC000002561203    0.0500
24     H24    -0.2836   -2.4046   -1.2575 H        1 ZINC000002561203    0.0500
25     H25     2.0252   -4.3114   -1.6905 H        1 ZINC000002561203    0.0600
26     H26     0.4755   -4.3276   -2.5658 H        1 ZINC000002561203    0.0600
27     H27     0.4193   -4.3290   -4.9914 H        1 ZINC000002561203    0.1300
28     H28     1.5895   -4.9376   -7.0699 H        1 ZINC000002561203    0.1400
29     H29     4.4629   -4.5435   -7.8249 H        1 ZINC000002561203    0.3900
30     H30     6.0871   -3.7362   -3.3715 H        1 ZINC000002561203    0.0600
31     H31     5.8780   -5.4611   -2.9852 H        1 ZINC000002561203    0.0600
32     H32     7.3318   -4.9135   -3.8541 H        1 ZINC000002561203    0.1000
33     H33     4.1317   -4.3044   -2.8923 H        1 ZINC000002561203    0.1300
@<TRIPOS>BOND
1     1     2     1
2     1     16    1
3     1     17    1
4     1     18    1
5     2     3     1
6     2     19    1
7     2     20    1
8     3     4     1
9     3     21    1
10    3     22    1
11    4     5     1
12    4     23    1
13    4     24    1
14    5     6     1
15    6     7     1
16    6     25    1
17    6     26    1
18    7     15    ar
19    7     8     ar
20    8     9     ar
21    8     27    1
22    9     10    ar
23    9     28    1
24    10    11    1
25    10    12    ar
26    11    29    1
27    12    13    1
28    12    15    ar
29    13    14    1
30    14    30    1
31    14    31    1
32    14    32    1
33    15    33    1
@<TRIPOS>SUBSTRUCTURE
1   ZINC000002561203 1     RESIDUE    1   A     ZIN   1
