@<TRIPOS>MOLECULE
ZINC000001530806
21    21    1     0     0
SMALL
USER_CHARGES
@<TRIPOS>ATOM
1      C1     -0.0187    1.5258    0.0104 C.3      1 ZINC000001530806   -0.1700
2      C2      0.0021   -0.0041    0.0020 C.3      1 ZINC000001530806   -0.1000
3      C3     -1.4333   -0.5336    0.0129 C.3      1 ZINC000001530806   -0.1000
4      C4     -2.1623   -0.0827    1.2802 C.3      1 ZINC000001530806   -0.1400
5      C5     -1.4455   -2.0713   -0.1063 C.3      1 ZINC000001530806   -0.1500
6      C6     -2.1968   -2.3211   -1.3958 C.2      1 ZINC000001530806    0.5300
7      O7     -2.4355   -3.4112   -1.8695 O.2      1 ZINC000001530806   -0.4800
8      N8     -2.5566   -1.1476   -1.9303 N.am     1 ZINC000001530806   -0.6800
9      C9     -2.1790   -0.0763   -1.2218 C.2      1 ZINC000001530806    0.5400
10     O10    -2.3999    1.0773   -1.5216 O.2      1 ZINC000001530806   -0.4700
11     H11     1.0039    1.9031    0.0027 H        1 ZINC000001530806    0.0600
12     H12    -0.5459    1.8868   -0.8726 H        1 ZINC000001530806    0.0700
13     H13    -0.5289    1.8773    0.9072 H        1 ZINC000001530806    0.0600
14     H14     0.5123   -0.3556   -0.8948 H        1 ZINC000001530806    0.0700
15     H15     0.5293   -0.3651    0.8851 H        1 ZINC000001530806    0.0800
16     H16    -2.1869    1.0064    1.3171 H        1 ZINC000001530806    0.0800
17     H17    -3.1815   -0.4689    1.2700 H        1 ZINC000001530806    0.0600
18     H18    -1.6379   -0.4642    2.1563 H        1 ZINC000001530806    0.0800
19     H19    -0.4289   -2.4589   -0.1733 H        1 ZINC000001530806    0.1200
20     H20    -1.9724   -2.5173    0.7373 H        1 ZINC000001530806    0.1200
21     H21    -3.0499   -1.0792   -2.7627 H        1 ZINC000001530806    0.4200
@<TRIPOS>BOND
1     1     2     1
2     1     11    1
3     1     12    1
4     1     13    1
5     2     3     1
6     2     14    1
7     2     15    1
8     3     9     1
9     3     4     1
10    3     5     1
11    4     16    1
12    4     17    1
13    4     18    1
14    5     6     1
15    5     19    1
16    5     20    1
17    6     7     2
18    6     8     am
19    8     9     am
20    8     21    1
21    9     10    2
@<TRIPOS>SUBSTRUCTURE
1   ZINC000001530806 1     RESIDUE    1   A     ZIN   1
