@<TRIPOS>MOLECULE
ZINC000000075008
32    33    1     0     0
SMALL
USER_CHARGES
@<TRIPOS>ATOM
1      C1      0.2125    1.4984    0.2109 C.3      1 ZINC000000075008   -0.1700
2      C2      0.1468   -0.0280    0.1299 C.3      1 ZINC000000075008   -0.1100
3      C3      0.9276   -0.5077   -1.0954 C.3      1 ZINC000000075008   -0.1500
4      H4      1.9443   -0.1155   -1.0739 H        1 ZINC000000075008    0.1300
5      C5      0.2258   -0.0825   -2.3668 C.2      1 ZINC000000075008    0.4800
6      O6      0.0487    1.0614   -2.7133 O.2      1 ZINC000000075008   -0.4300
7      O7     -0.1694   -1.1652   -3.0516 O.3      1 ZINC000000075008   -0.3400
8      C8      0.6060   -2.3274   -2.6336 C.3      1 ZINC000000075008    0.0500
9      C9      0.9479   -2.0516   -1.1494 C.3      1 ZINC000000075008   -0.1200
10     H10     1.9360   -2.4384   -0.9003 H        1 ZINC000000075008    0.1100
11     C11    -0.1165   -2.6465   -0.2253 C.3      1 ZINC000000075008   -0.0600
12     C12    -0.0946   -4.1493   -0.3359 C.2      1 ZINC000000075008    0.0500
13     C13    -0.7468   -4.8968   -1.2466 C.2      1 ZINC000000075008    0.0000
14     N14    -0.4661   -6.1856   -1.0034 N.pl3    1 ZINC000000075008   -0.4700
15     H15    -0.8051   -6.9396   -1.5110 H        1 ZINC000000075008    0.4700
16     C16     0.3353   -6.2652    0.0234 C.cat    1 ZINC000000075008    0.2900
17     N17     0.5967   -5.0165    0.4664 N.pl3    1 ZINC000000075008   -0.4100
18     C18     1.4526   -4.6577    1.5999 C.3      1 ZINC000000075008    0.0500
19     H19     1.2525    1.8133    0.2967 H        1 ZINC000000075008    0.0600
20     H20    -0.2245    1.9292   -0.6899 H        1 ZINC000000075008    0.0700
21     H21    -0.3438    1.8402    1.0838 H        1 ZINC000000075008    0.0600
22     H22     0.5838   -0.4589    1.0307 H        1 ZINC000000075008    0.0800
23     H23    -0.8932   -0.3429    0.0441 H        1 ZINC000000075008    0.0700
24     H24     0.0101   -3.2355   -2.7250 H        1 ZINC000000075008    0.1000
25     H25     1.5184   -2.4087   -3.2242 H        1 ZINC000000075008    0.1000
26     H26     0.0920   -2.3549    0.8041 H        1 ZINC000000075008    0.1100
27     H27    -1.0990   -2.2751   -0.5162 H        1 ZINC000000075008    0.1200
28     H28    -1.3842   -4.5238   -2.0347 H        1 ZINC000000075008    0.2200
29     H29     0.7276   -7.1782    0.4464 H        1 ZINC000000075008    0.2600
30     H30     2.4541   -4.4235    1.2392 H        1 ZINC000000075008    0.1100
31     H31     1.0367   -3.7877    2.1081 H        1 ZINC000000075008    0.1200
32     H32     1.5037   -5.4950    2.2960 H        1 ZINC000000075008    0.1200
@<TRIPOS>BOND
1     1     2     1
2     1     19    1
3     1     20    1
4     1     21    1
5     2     3     1
6     2     22    1
7     2     23    1
8     3     4     1
9     3     9     1
10    3     5     1
11    5     6     2
12    5     7     1
13    7     8     1
14    8     9     1
15    8     24    1
16    8     25    1
17    9     10    1
18    9     11    1
19    11    12    1
20    11    26    1
21    11    27    1
22    12    17    1
23    12    13    2
24    13    14    1
25    13    28    1
26    14    15    1
27    14    16    ar
28    16    17    ar
29    16    29    1
30    17    18    1
31    18    30    1
32    18    31    1
33    18    32    1
@<TRIPOS>SUBSTRUCTURE
1   ZINC000000075008 1     RESIDUE    1   A     ZIN   1
