@<TRIPOS>MOLECULE
ZINC000060325170
52    55    1     0     0
SMALL
USER_CHARGES
@<TRIPOS>ATOM
1      O1      1.6586    0.3344    2.2821 O.2      1 ZINC000060325170   -0.4900
2      C2      1.8523    1.5310    2.1841 C.2      1 ZINC000060325170    0.6000
3      C3      2.2962    2.1027    0.9009 C.ar     1 ZINC000060325170   -0.1300
4      C4      2.3741    3.4890    0.7388 C.ar     1 ZINC000060325170   -0.0800
5      C5      2.7893    4.0191   -0.4621 C.ar     1 ZINC000060325170   -0.1300
6      C6      3.1323    3.1834   -1.5166 C.ar     1 ZINC000060325170    0.1100
7      F7      3.5383    3.7148   -2.6904 F        1 ZINC000060325170   -0.1100
8      C8      3.0607    1.8087   -1.3715 C.ar     1 ZINC000060325170    0.0600
9      F9      3.3970    1.0023   -2.4019 F        1 ZINC000060325170   -0.1100
10     C10     2.6486    1.2579   -0.1639 C.ar     1 ZINC000060325170    0.2000
11     N11     2.5760   -0.1228   -0.0142 N.pl3    1 ZINC000060325170   -0.6800
12     C12     3.7298   -0.8557    0.2828 C.ar     1 ZINC000060325170    0.2100
13     C13     4.9593   -0.2162    0.3611 C.ar     1 ZINC000060325170   -0.1700
14     C14     6.0974   -0.9426    0.6551 C.ar     1 ZINC000060325170   -0.0400
15     C15     6.0136   -2.3059    0.8715 C.ar     1 ZINC000060325170   -0.1200
16     I16     7.7428   -3.4016    1.3168 I        1 ZINC000060325170   -0.0200
17     C17     4.7901   -2.9479    0.7950 C.ar     1 ZINC000060325170   -0.0700
18     C18     3.6468   -2.2266    0.5061 C.ar     1 ZINC000060325170    0.0500
19     F19     2.4522   -2.8532    0.4314 F        1 ZINC000060325170   -0.1300
20     N20     1.6557    2.3349    3.2479 N.am     1 ZINC000060325170   -0.6500
21     C21     1.7159    3.7811    3.5077 C.3      1 ZINC000060325170    0.0700
22     C22     2.0437    3.4498    4.9702 C.3      1 ZINC000060325170    0.0700
23     O23     3.4366    3.2666    5.2315 O.3      1 ZINC000060325170   -0.5300
24     C24     1.3515    4.3571    5.9893 C.3      1 ZINC000060325170    0.0600
25     H25     0.2708    4.2714    5.8763 H        1 ZINC000060325170    0.1600
26     C26     1.7752    5.8079    5.7503 C.3      1 ZINC000060325170   -0.1400
27     C27     1.0798    6.7120    6.7722 C.3      1 ZINC000060325170   -0.1400
28     C28     1.4269    6.2311    8.1842 C.3      1 ZINC000060325170   -0.1500
29     C29     1.0161    4.7646    8.3330 C.3      1 ZINC000060325170   -0.0100
30     N30     1.7348    3.9495    7.3463 N.4      1 ZINC000060325170   -0.5000
31     H31     1.5027    2.9769    7.4818 H        1 ZINC000060325170    0.4300
32     H32     2.7286    4.0768    7.4661 H        1 ZINC000060325170    0.4400
33     C33     1.2801    2.1523    4.6580 C.3      1 ZINC000060325170    0.0700
34     H34     2.1083    4.1441    1.5552 H        1 ZINC000060325170    0.1600
35     H35     2.8482    5.0905   -0.5847 H        1 ZINC000060325170    0.1600
36     H36     1.7252   -0.5775   -0.1156 H        1 ZINC000060325170    0.4300
37     H37     5.0264    0.8484    0.1919 H        1 ZINC000060325170    0.1300
38     H38     7.0540   -0.4449    0.7156 H        1 ZINC000060325170    0.1400
39     H39     4.7279   -4.0127    0.9646 H        1 ZINC000060325170    0.1500
40     H40     2.5293    4.2829    2.9835 H        1 ZINC000060325170    0.1100
41     H41     0.7578    4.2852    3.3811 H        1 ZINC000060325170    0.1100
42     H42     3.8734    2.6538    4.6242 H        1 ZINC000060325170    0.4100
43     H43     2.8559    5.8948    5.8634 H        1 ZINC000060325170    0.1000
44     H44     1.4886    6.1096    4.7429 H        1 ZINC000060325170    0.1100
45     H45     1.4217    7.7389    6.6426 H        1 ZINC000060325170    0.1000
46     H46     0.0007    6.6647    6.6260 H        1 ZINC000060325170    0.0800
47     H47     2.5003    6.3268    8.3477 H        1 ZINC000060325170    0.0900
48     H48     0.8912    6.8352    8.9164 H        1 ZINC000060325170    0.1100
49     H49     1.2616    4.4191    9.3372 H        1 ZINC000060325170    0.1400
50     H50    -0.0575    4.6701    8.1695 H        1 ZINC000060325170    0.1300
51     H51     0.2076    2.2258    4.8381 H        1 ZINC000060325170    0.1100
52     H52     1.7247    1.2669    5.1124 H        1 ZINC000060325170    0.1000
@<TRIPOS>BOND
1     1     2     2
2     2     3     1
3     2     20    am
4     3     10    ar
5     3     4     ar
6     4     5     ar
7     4     34    1
8     5     6     ar
9     5     35    1
10    6     7     1
11    6     8     ar
12    8     9     1
13    8     10    ar
14    10    11    1
15    11    12    1
16    11    36    1
17    12    18    ar
18    12    13    ar
19    13    14    ar
20    13    37    1
21    14    15    ar
22    14    38    1
23    15    16    1
24    15    17    ar
25    17    18    ar
26    17    39    1
27    18    19    1
28    20    33    1
29    20    21    1
30    21    22    1
31    21    40    1
32    21    41    1
33    22    23    1
34    22    24    1
35    22    33    1
36    23    42    1
37    24    25    1
38    24    30    1
39    24    26    1
40    26    27    1
41    26    43    1
42    26    44    1
43    27    28    1
44    27    45    1
45    27    46    1
46    28    29    1
47    28    47    1
48    28    48    1
49    29    30    1
50    29    49    1
51    29    50    1
52    30    31    1
53    30    32    1
54    33    51    1
55    33    52    1
@<TRIPOS>SUBSTRUCTURE
1   ZINC000060325170 1     RESIDUE    1   A     ZIN   1
