@<TRIPOS>MOLECULE
ZINC000000538266
36   38    0    0    0
SMALL
USER_CHARGES
NO_NAME
@<TRIPOS>ATOM
1 F1        1.3361     1.9924     2.3660 F      1 <0>      -0.1300
2 C2        0.4542     1.5518     1.4423 C.ar   1 <0>       0.1300
3 C3       -0.8821     1.8926     1.5414 C.ar   1 <0>      -0.1500
4 C4       -1.7848     1.4416     0.5961 C.ar   1 <0>      -0.0700
5 C5       -1.3583     0.6476    -0.4539 C.ar   1 <0>      -0.1300
6 C6       -0.0280     0.2995    -0.5649 C.ar   1 <0>      -0.0500
7 C7        0.8908     0.7550     0.3806 C.ar   1 <0>      -0.1000
8 C8        2.3199     0.3854     0.2669 C.2    1 <0>       0.2700
9 N9        2.6259    -0.8568     0.4019 N.2    1 <0>      -0.4700
10 C10       4.0084    -1.3252     0.3135 C.3    1 <0>       0.0600
11 C11       4.8011    -0.7184     1.4390 C.2    1 <0>       0.2300
12 S12       5.4412    -1.6780     2.5464 S.2    1 <0>      -0.3500
13 N13       4.9837     0.5965     1.5368 N.am   1 <0>      -0.4800
14 C14       5.7187     1.0910     2.7036 C.3    1 <0>       0.0300
15 C15       4.7290     1.4660     3.8084 C.3    1 <0>       0.4500
16 F16       3.9008     0.3726     4.0836 F      1 <0>      -0.1700
17 F17       5.4328     1.8205     4.9644 F      1 <0>      -0.1700
18 F18       3.9483     2.5480     3.3876 F      1 <0>      -0.1700
19 C19       4.5337     1.5343     0.6213 C.ar   1 <0>       0.1500
20 C20       5.3910     2.5927     0.3138 C.ar   1 <0>      -0.1200
21 C21       5.0126     3.5649    -0.5858 C.ar   1 <0>      -0.0600
22 C22       3.7706     3.5006    -1.1972 C.ar   1 <0>      -0.0400
23 Cl23      3.2968     4.7272    -2.3307 Cl     1 <0>      -0.0400
24 C24       2.9124     2.4640    -0.9062 C.ar   1 <0>      -0.0500
25 C25       3.2833     1.4654     0.0020 C.ar   1 <0>      -0.1000
26 H26      -1.2214     2.5117     2.3587 H      1 <0>       0.1400
27 H27      -2.8277     1.7101     0.6778 H      1 <0>       0.1400
28 H28      -2.0691     0.2991    -1.1886 H      1 <0>       0.1400
29 H29       0.3022    -0.3206    -1.3851 H      1 <0>       0.1400
30 H30       4.0316    -2.4119     0.3951 H      1 <0>       0.1500
31 H31       4.4371    -1.0198    -0.6410 H      1 <0>       0.1000
32 H32       6.3905     0.3129     3.0664 H      1 <0>       0.1700
33 H33       6.2990     1.9696     2.4220 H      1 <0>       0.1400
34 H34       6.3605     2.6499     0.7863 H      1 <0>       0.1500
35 H35       5.6851     4.3783    -0.8153 H      1 <0>       0.1500
36 H36       1.9453     2.4186    -1.3849 H      1 <0>       0.1500
@<TRIPOS>BOND
1    1    2 1
2    2    7 ar
3    2    3 ar
4    3    4 ar
5    3   26 1
6    4    5 ar
7    4   27 1
8    5    6 ar
9    5   28 1
10    6    7 ar
11    6   29 1
12    7    8 1
13    8   25 1
14    8    9 2
15    9   10 1
16   10   11 1
17   10   30 1
18   10   31 1
19   11   12 2
20   11   13 am
21   13   14 1
22   13   19 1
23   14   15 1
24   14   32 1
25   14   33 1
26   15   16 1
27   15   17 1
28   15   18 1
29   19   25 ar
30   19   20 ar
31   20   21 ar
32   20   34 1
33   21   22 ar
34   21   35 1
35   22   23 1
36   22   24 ar
37   24   25 ar
38   24   36 1
