@<TRIPOS>MOLECULE
ZINC000012495062
56    57    1     0     0
SMALL
USER_CHARGES
@<TRIPOS>ATOM
1      C1     -0.0187    1.5258    0.0104 C.3      1 ZINC000012495062   -0.1500
2      C2      0.0021   -0.0041    0.0020 C.3      1 ZINC000012495062   -0.1300
3      C3      0.7182   -0.4975   -1.2568 C.3      1 ZINC000012495062   -0.1200
4      C4      0.7390   -2.0273   -1.2652 C.3      1 ZINC000012495062   -0.1200
5      C5      1.4551   -2.5207   -2.5240 C.3      1 ZINC000012495062   -0.1400
6      C6      1.4758   -4.0506   -2.5324 C.3      1 ZINC000012495062    0.1400
7      H7      0.4580   -4.4283   -2.4352 H        1 ZINC000012495062    0.1100
8      O8      2.2655   -4.5223   -1.4388 O.3      1 ZINC000012495062   -0.5600
9      C9      2.0707   -4.5378   -3.8285 C.2      1 ZINC000012495062   -0.1900
10     C10     3.0937   -5.3559   -3.8130 C.2      1 ZINC000012495062   -0.1400
11     C11     3.6886   -5.8431   -5.1091 C.3      1 ZINC000012495062   -0.0500
12     H12     3.1553   -5.4078   -5.9541 H        1 ZINC000012495062    0.0900
13     C13     5.1830   -5.4770   -5.1785 C.3      1 ZINC000012495062    0.1100
14     H14     5.6144   -5.4535   -4.1778 H        1 ZINC000012495062    0.0700
15     O15     5.3558   -4.2134   -5.8231 O.3      1 ZINC000012495062   -0.5600
16     C16     5.8267   -6.5989   -6.0130 C.3      1 ZINC000012495062   -0.1600
17     C17     4.9724   -7.8539   -5.7734 C.3      1 ZINC000012495062    0.0800
18     H18     5.4761   -8.5464   -5.0990 H        1 ZINC000012495062    0.0900
19     O19     4.6868   -8.4782   -7.0311 O.3      1 ZINC000012495062   -0.3100
20     C20     3.3783   -8.8417   -7.0850 C.2      1 ZINC000012495062    0.0300
21     C21     2.8785   -9.8840   -7.7162 C.2      1 ZINC000012495062   -0.1700
22     C22     1.3955  -10.1487   -7.6770 C.3      1 ZINC000012495062   -0.0800
23     C23     0.8582  -10.2535   -9.1057 C.3      1 ZINC000012495062   -0.0900
24     C24    -0.6475  -10.5223   -9.0660 C.3      1 ZINC000012495062   -0.1800
25     C25    -1.1766  -10.6255  -10.4732 C.2      1 ZINC000012495062    0.4900
26     O26    -0.4197  -10.4961  -11.4202 O.co2    1 ZINC000012495062   -0.7000
27     O27    -2.3617  -10.8384  -10.6648 O.co2    1 ZINC000012495062   -0.7100
28     C28     2.6033   -7.8158   -6.2768 C.3      1 ZINC000012495062   -0.1100
29     C29     3.6275   -7.3752   -5.1768 C.3      1 ZINC000012495062   -0.1100
30     H30     3.4040   -7.8237   -4.2088 H        1 ZINC000012495062    0.1000
31     H31     1.0039    1.9031    0.0027 H        1 ZINC000012495062    0.0500
32     H32    -0.5459    1.8868   -0.8726 H        1 ZINC000012495062    0.0500
33     H33    -0.5289    1.8773    0.9072 H        1 ZINC000012495062    0.0500
34     H34     0.5293   -0.3651    0.8851 H        1 ZINC000012495062    0.0600
35     H35    -1.0205   -0.3814    0.0098 H        1 ZINC000012495062    0.0600
36     H36     0.1910   -0.1364   -2.1398 H        1 ZINC000012495062    0.0600
37     H37     1.7408   -0.1202   -1.2645 H        1 ZINC000012495062    0.0600
38     H38     1.2661   -2.3884   -0.3821 H        1 ZINC000012495062    0.0700
39     H39    -0.2836   -2.4046   -1.2575 H        1 ZINC000012495062    0.0600
40     H40     0.9279   -2.1597   -3.4071 H        1 ZINC000012495062    0.0700
41     H41     2.4777   -2.1435   -2.5317 H        1 ZINC000012495062    0.0700
42     H42     3.1852   -4.2243   -1.4604 H        1 ZINC000012495062    0.3700
43     H43     1.6537   -4.2124   -4.7701 H        1 ZINC000012495062    0.1200
44     H44     3.5108   -5.6813   -2.8714 H        1 ZINC000012495062    0.1200
45     H45     6.2779   -3.9315   -5.8951 H        1 ZINC000012495062    0.3800
46     H46     5.8150   -6.3336   -7.0701 H        1 ZINC000012495062    0.0900
47     H47     6.8501   -6.7731   -5.6809 H        1 ZINC000012495062    0.0800
48     H48     3.5316  -10.5490   -8.2618 H        1 ZINC000012495062    0.1200
49     H49     1.2070  -11.0832   -7.1485 H        1 ZINC000012495062    0.0700
50     H50     0.8940   -9.3310   -7.1593 H        1 ZINC000012495062    0.0600
51     H51     1.0467   -9.3190   -9.6342 H        1 ZINC000012495062    0.0600
52     H52     1.3597  -11.0712   -9.6234 H        1 ZINC000012495062    0.0600
53     H53    -0.8359  -11.4568   -8.5375 H        1 ZINC000012495062    0.0600
54     H54    -1.1489   -9.7046   -8.5483 H        1 ZINC000012495062    0.0500
55     H55     2.3136   -6.9719   -6.9030 H        1 ZINC000012495062    0.0900
56     H56     1.7277   -8.2717   -5.8147 H        1 ZINC000012495062    0.0900
@<TRIPOS>BOND
1     1     2     1
2     1     31    1
3     1     32    1
4     1     33    1
5     2     3     1
6     2     34    1
7     2     35    1
8     3     4     1
9     3     36    1
10    3     37    1
11    4     5     1
12    4     38    1
13    4     39    1
14    5     6     1
15    5     40    1
16    5     41    1
17    6     7     1
18    6     8     1
19    6     9     1
20    8     42    1
21    9     10    2
22    9     43    1
23    10    11    1
24    10    44    1
25    11    12    1
26    11    29    1
27    11    13    1
28    13    14    1
29    13    15    1
30    13    16    1
31    15    45    1
32    16    17    1
33    16    46    1
34    16    47    1
35    17    18    1
36    17    29    1
37    17    19    1
38    19    20    1
39    20    21    2
40    20    28    1
41    21    22    1
42    21    48    1
43    22    23    1
44    22    49    1
45    22    50    1
46    23    24    1
47    23    51    1
48    23    52    1
49    24    25    1
50    24    53    1
51    24    54    1
52    25    26    ar
53    25    27    ar
54    28    29    1
55    28    55    1
56    28    56    1
57    29    30    1
@<TRIPOS>SUBSTRUCTURE
1   ZINC000012495062 1     RESIDUE    1   A     ZIN   1
