@<TRIPOS>MOLECULE
ZINC000100036924
52    55    1     0     0
SMALL
USER_CHARGES
@<TRIPOS>ATOM
1      C1     -0.0062    1.4658   -0.0161 C.3      1 ZINC000100036924   -0.0500
2      N2      0.0147   -0.0029   -0.0409 N.4      1 ZINC000100036924   -0.3700
3      H3      0.3868   -0.3191   -0.9239 H        1 ZINC000100036924    0.4300
4      C4      0.8606   -0.4991    1.0528 C.3      1 ZINC000100036924   -0.0500
5      C5     -1.3519   -0.5149    0.1261 C.3      1 ZINC000100036924    0.0400
6      H6     -1.7816   -0.0862    1.0315 H        1 ZINC000100036924    0.1400
7      C7     -1.2981   -2.0061    0.2723 C.2      1 ZINC000100036924    0.3000
8      O8     -0.9740   -2.5289    1.4642 O.3      1 ZINC000100036924   -0.5900
9      C9     -1.5696   -2.8545   -0.7720 C.2      1 ZINC000100036924   -0.4800
10     C10    -1.4709   -4.3098   -0.5774 C.2      1 ZINC000100036924    0.5900
11     N11    -1.6108   -5.1413   -1.6288 N.am     1 ZINC000100036924   -0.8700
12     O12    -1.2629   -4.7623    0.5324 O.2      1 ZINC000100036924   -0.5600
13     C13    -1.9568   -2.3198   -2.0765 C.2      1 ZINC000100036924    0.3900
14     O14    -2.4019   -3.0513   -2.9367 O.2      1 ZINC000100036924   -0.4700
15     C15    -1.7926   -0.8338   -2.3352 C.3      1 ZINC000100036924    0.0600
16     O16    -0.4386   -0.5384   -2.6839 O.3      1 ZINC000100036924   -0.5700
17     C17    -2.7328   -0.4600   -3.4501 C.2      1 ZINC000100036924    0.3900
18     O18    -2.4088   -0.7268   -4.5913 O.2      1 ZINC000100036924   -0.4900
19     C19    -3.9514    0.1744   -3.2424 C.2      1 ZINC000100036924   -0.4700
20     C20    -4.7327    0.4997   -4.3378 C.2      1 ZINC000100036924    0.3400
21     O21    -4.2748    0.2837   -5.5901 O.3      1 ZINC000100036924   -0.6000
22     C22    -6.0663    1.0824   -4.1253 C.ar     1 ZINC000100036924   -0.0700
23     C23    -6.7454    1.7148   -5.1754 C.ar     1 ZINC000100036924    0.1400
24     O24    -6.1819    1.7878   -6.4076 O.3      1 ZINC000100036924   -0.4700
25     C25    -7.9980    2.2652   -4.9465 C.ar     1 ZINC000100036924   -0.1500
26     C26    -8.5695    2.1910   -3.6915 C.ar     1 ZINC000100036924   -0.1000
27     C27    -7.9017    1.5630   -2.6501 C.ar     1 ZINC000100036924   -0.0500
28     Cl28   -8.6328    1.4787   -1.0779 Cl       1 ZINC000100036924   -0.0800
29     C29    -6.6599    1.0058   -2.8615 C.ar     1 ZINC000100036924   -0.0800
30     C30    -5.9377    0.3000   -1.7424 C.3      1 ZINC000100036924    0.1500
31     H31    -6.2898    0.6828   -0.7845 H        1 ZINC000100036924    0.0600
32     O32    -6.1972   -1.1032   -1.8187 O.3      1 ZINC000100036924   -0.5300
33     C33    -4.4368    0.5479   -1.8676 C.3      1 ZINC000100036924    0.0100
34     H34    -4.2402    1.6086   -1.7115 H        1 ZINC000100036924    0.0600
35     C35    -3.6813   -0.2570   -0.8076 C.3      1 ZINC000100036924   -0.0900
36     C36    -2.1865   -0.0866   -1.0647 C.3      1 ZINC000100036924   -0.0800
37     H37    -1.9938    0.9737   -1.2286 H        1 ZINC000100036924    0.0900
38     H38     1.0157    1.8442   -0.0428 H        1 ZINC000100036924    0.1100
39     H39    -0.5535    1.8360   -0.8830 H        1 ZINC000100036924    0.1200
40     H40    -0.4962    1.8068    0.8958 H        1 ZINC000100036924    0.1100
41     H41     0.4587   -0.1574    2.0067 H        1 ZINC000100036924    0.1100
42     H42     0.8762   -1.5888    1.0344 H        1 ZINC000100036924    0.1400
43     H43     1.8747   -0.1191    0.9289 H        1 ZINC000100036924    0.1000
44     H44    -1.8446   -4.7858   -2.5005 H        1 ZINC000100036924    0.4000
45     H45    -1.4778   -6.0952   -1.5139 H        1 ZINC000100036924    0.3800
46     H46    -0.1285   -0.9947   -3.4781 H        1 ZINC000100036924    0.4000
47     H47    -6.3964    1.0408   -6.9831 H        1 ZINC000100036924    0.3900
48     H48    -8.5273    2.7532   -5.7515 H        1 ZINC000100036924    0.1300
49     H49    -9.5432    2.6254   -3.5193 H        1 ZINC000100036924    0.1300
50     H50    -7.1332   -1.3347   -1.7451 H        1 ZINC000100036924    0.3700
51     H51    -3.9305    0.1162    0.1858 H        1 ZINC000100036924    0.0700
52     H52    -3.9496   -1.3107   -0.8842 H        1 ZINC000100036924    0.0900
@<TRIPOS>BOND
1     1     2     1
2     1     38    1
3     1     39    1
4     1     40    1
5     2     3     1
6     2     4     1
7     2     5     1
8     4     41    1
9     4     42    1
10    4     43    1
11    5     6     1
12    5     36    1
13    5     7     1
14    7     8     1
15    7     9     2
16    9     10    1
17    9     13    1
18    10    11    am
19    10    12    2
20    11    44    1
21    11    45    1
22    13    14    2
23    13    15    1
24    15    36    1
25    15    16    1
26    15    17    1
27    16    46    1
28    17    18    2
29    17    19    1
30    19    33    1
31    19    20    2
32    20    21    1
33    20    22    1
34    22    29    ar
35    22    23    ar
36    23    24    1
37    23    25    ar
38    24    47    1
39    25    26    ar
40    25    48    1
41    26    27    ar
42    26    49    1
43    27    28    1
44    27    29    ar
45    29    30    1
46    30    31    1
47    30    32    1
48    30    33    1
49    32    50    1
50    33    34    1
51    33    35    1
52    35    36    1
53    35    51    1
54    35    52    1
55    36    37    1
@<TRIPOS>SUBSTRUCTURE
1   ZINC000100036924 1     RESIDUE    1   A     ZIN   1
