@<TRIPOS>MOLECULE
ZINC000001543916
47   48    0    0    0
SMALL
USER_CHARGES
NO_NAME
@<TRIPOS>ATOM
1 C1       -0.0187     1.5258     0.0104 C.3    1 <0>      -0.1500
2 C2        0.0021    -0.0041     0.0020 C.3    1 <0>      -0.1300
3 C3        0.7182    -0.4975    -1.2568 C.3    1 <0>      -0.1500
4 C4        0.7421    -0.5109     1.2415 C.3    1 <0>       0.1100
5 H5        1.7647    -0.1336     1.2338 H      1 <0>       0.1200
6 N6        0.7620    -1.9797     1.2335 N.3    1 <0>      -0.8300
7 C7        0.0367    -0.0249     2.4814 C.2    1 <0>       0.4700
8 O8       -0.7063    -0.7640     3.0828 O.2    1 <0>      -0.5100
9 O9        0.2338     1.2291     2.9177 O.3    1 <0>      -0.3100
10 C10      -0.4783     1.6289     4.1183 C.3    1 <0>       0.0700
11 C11      -0.1303     3.0794     4.4585 C.3    1 <0>       0.1000
12 H12      -0.5939     3.3515     5.4068 H      1 <0>       0.1000
13 C13       1.3884     3.2262     4.5726 C.3    1 <0>       0.0500
14 O14       2.0037     2.7596     3.3703 O.3    1 <0>      -0.5400
15 O15      -0.6159     3.9404     3.4266 O.3    1 <0>      -0.3700
16 C16      -0.9715     5.2480     3.8801 C.3    1 <0>       0.2900
17 N17      -1.4538     6.0431     2.7481 N.pl3  1 <0>      -0.4600
18 C18      -1.5626     5.6224     1.4543 C.2    1 <0>       0.2300
19 N19      -2.0258     6.5870     0.7144 N.2    1 <0>      -0.4200
20 C20      -2.2412     7.6804     1.4857 C.2    1 <0>      -0.1400
21 C21      -1.8831     7.3417     2.7956 C.2    1 <0>       0.3100
22 N22      -1.9993     8.2507     3.7707 N.2    1 <0>      -0.5800
23 C23      -2.4456     9.4615     3.5210 C.2    1 <0>       0.6600
24 N24      -2.5472    10.3601     4.5532 N.pl3  1 <0>      -0.8200
25 N25      -2.8100     9.8505     2.2665 N.am   1 <0>      -0.6600
26 C26      -2.7238     8.9856     1.2317 C.2    1 <0>       0.6000
27 O27      -3.0473     9.3240     0.1060 O.2    1 <0>      -0.5100
28 H28       1.0039     1.9031     0.0027 H      1 <0>       0.0600
29 H29      -0.5459     1.8868    -0.8726 H      1 <0>       0.0600
30 H30      -0.5289     1.8773     0.9072 H      1 <0>       0.0700
31 H31      -1.0205    -0.3814     0.0098 H      1 <0>       0.0700
32 H32       1.7408    -0.1202    -1.2645 H      1 <0>       0.0600
33 H33       0.7330    -1.5874    -1.2628 H      1 <0>       0.0500
34 H34       0.1910    -0.1364    -2.1398 H      1 <0>       0.0700
35 H35      -0.1750    -2.3541     1.2404 H      1 <0>       0.3500
36 H36       1.2855    -2.3299     0.4452 H      1 <0>       0.3600
37 H37      -1.5518     1.5428     3.9497 H      1 <0>       0.0800
38 H38      -0.1874     0.9818     4.9458 H      1 <0>       0.0900
39 H39       1.6415     4.2751     4.7269 H      1 <0>       0.0500
40 H40       1.7479     2.6378     5.4168 H      1 <0>       0.0600
41 H41       2.9686     2.8230     3.3720 H      1 <0>       0.3700
42 H42      -1.7578     5.1708     4.6310 H      1 <0>       0.0800
43 H43      -0.0977     5.7311     4.3173 H      1 <0>       0.0800
44 H44      -1.3027     4.6365     1.0981 H      1 <0>       0.2200
45 H45      -2.2914    10.0980     5.4514 H      1 <0>       0.4300
46 H46      -2.8748    11.2574     4.3845 H      1 <0>       0.4200
47 H47      -3.1358    10.7517     2.1163 H      1 <0>       0.4200
@<TRIPOS>BOND
1    1    2 1
2    1   28 1
3    1   29 1
4    1   30 1
5    2    3 1
6    2    4 1
7    2   31 1
8    3   32 1
9    3   33 1
10    3   34 1
11    4    5 1
12    4    6 1
13    4    7 1
14    6   35 1
15    6   36 1
16    7    8 2
17    7    9 1
18    9   10 1
19   10   11 1
20   10   37 1
21   10   38 1
22   11   12 1
23   11   13 1
24   11   15 1
25   13   14 1
26   13   39 1
27   13   40 1
28   14   41 1
29   15   16 1
30   16   17 1
31   16   42 1
32   16   43 1
33   17   21 1
34   17   18 1
35   18   19 2
36   18   44 1
37   19   20 1
38   20   26 1
39   20   21 2
40   21   22 1
41   22   23 2
42   23   24 1
43   23   25 1
44   24   45 1
45   24   46 1
46   25   26 am
47   25   47 1
48   26   27 2
