@<TRIPOS>MOLECULE
ZINC000000000431
31    33    1     0     0
SMALL
USER_CHARGES
@<TRIPOS>ATOM
1      O1      0.1933   -0.0209    0.0176 O.2      1 ZINC000000000431   -0.5000
2      C2      0.0957    1.1880    0.0114 C.2      1 ZINC000000000431    0.5300
3      N3     -1.1150    1.7404   -0.0189 N.am     1 ZINC000000000431   -0.6500
4      C4     -1.3716    3.1025    0.0258 C.ar     1 ZINC000000000431    0.2000
5      C5     -2.4517    3.5260    0.8023 C.ar     1 ZINC000000000431   -0.1300
6      C6     -2.7700    4.8633    0.8937 C.ar     1 ZINC000000000431   -0.0600
7      C7     -2.0166    5.8052    0.2115 C.ar     1 ZINC000000000431   -0.0500
8      Cl8    -2.4209    7.4895    0.3276 Cl       1 ZINC000000000431   -0.0600
9      C9     -0.9470    5.4055   -0.5580 C.ar     1 ZINC000000000431   -0.0500
10     C10    -0.6108    4.0473   -0.6602 C.ar     1 ZINC000000000431   -0.1100
11     C11     0.5466    3.6922   -1.4964 C.2      1 ZINC000000000431    0.3000
12     C12     0.7147    4.4169   -2.7770 C.ar     1 ZINC000000000431   -0.0600
13     C13     1.8100    5.2592   -2.9664 C.ar     1 ZINC000000000431   -0.0700
14     C14     1.9614    5.9314   -4.1619 C.ar     1 ZINC000000000431   -0.1100
15     C15     1.0298    5.7717   -5.1722 C.ar     1 ZINC000000000431   -0.0900
16     C16    -0.0593    4.9384   -4.9916 C.ar     1 ZINC000000000431   -0.1100
17     C17    -0.2195    4.2553   -3.8019 C.ar     1 ZINC000000000431   -0.0100
18     Cl18   -1.5865    3.2092   -3.5763 Cl       1 ZINC000000000431   -0.0600
19     N19     1.4235    2.7999   -1.1982 N.2      1 ZINC000000000431   -0.5200
20     C20     1.3458    2.0241    0.0445 C.3      1 ZINC000000000431    0.2400
21     H21     2.2170    1.3739    0.1240 H        1 ZINC000000000431    0.1300
22     O22     1.3088    2.9134    1.1624 O.3      1 ZINC000000000431   -0.5600
23     H23    -1.8774    1.1435   -0.0771 H        1 ZINC000000000431    0.4100
24     H24    -3.0441    2.7979    1.3364 H        1 ZINC000000000431    0.1400
25     H25    -3.6082    5.1780    1.4978 H        1 ZINC000000000431    0.1500
26     H26    -0.3627    6.1434   -1.0878 H        1 ZINC000000000431    0.1400
27     H27     2.5380    5.3855   -2.1788 H        1 ZINC000000000431    0.1400
28     H28     2.8092    6.5841   -4.3091 H        1 ZINC000000000431    0.1400
29     H29     1.1533    6.3002   -6.1059 H        1 ZINC000000000431    0.1400
30     H30    -0.7832    4.8181   -5.7839 H        1 ZINC000000000431    0.1400
31     H31     2.0832    3.4880    1.2337 H        1 ZINC000000000431    0.4000
@<TRIPOS>BOND
1     1     2     2
2     2     20    1
3     2     3     am
4     3     4     1
5     3     23    1
6     4     10    ar
7     4     5     ar
8     5     6     ar
9     5     24    1
10    6     7     ar
11    6     25    1
12    7     8     1
13    7     9     ar
14    9     10    ar
15    9     26    1
16    10    11    1
17    11    12    1
18    11    19    2
19    12    17    ar
20    12    13    ar
21    13    14    ar
22    13    27    1
23    14    15    ar
24    14    28    1
25    15    16    ar
26    15    29    1
27    16    17    ar
28    16    30    1
29    17    18    1
30    19    20    1
31    20    21    1
32    20    22    1
33    22    31    1
@<TRIPOS>SUBSTRUCTURE
1   ZINC000000000431 1     RESIDUE    1   A     ZIN   1
