@<TRIPOS>MOLECULE
ZINC000000113426
32    34    1     0     0
SMALL
USER_CHARGES
@<TRIPOS>ATOM
1      C1     -0.0166    1.3756    0.0096 C.ar     1 ZINC000000113426   -0.1000
2      C2      1.1736    2.0782    0.0020 C.ar     1 ZINC000000113426   -0.1100
3      C3      2.3724    1.3951   -0.0101 C.ar     1 ZINC000000113426   -0.1300
4      C4      2.3933    0.0066   -0.0172 C.ar     1 ZINC000000113426   -0.1100
5      C5      1.2075   -0.6934   -0.0148 C.ar     1 ZINC000000113426   -0.0500
6      C6      0.0021   -0.0041    0.0020 C.ar     1 ZINC000000113426   -0.1100
7      C7      1.1546   -2.1986   -0.0381 C.3      1 ZINC000000113426   -0.0900
8      C8      2.5007   -2.7899    0.3754 C.3      1 ZINC000000113426   -0.1200
9      C9      3.5987   -2.1297   -0.4668 C.3      1 ZINC000000113426   -0.1200
10     C10     3.7367   -0.6747   -0.0234 C.3      1 ZINC000000113426   -0.0200
11     H11     4.1603   -0.6434    0.9804 H        1 ZINC000000113426    0.1400
12     C12     4.6558    0.0492   -0.9733 C.cat    1 ZINC000000113426    0.5200
13     N13     4.7599   -0.2783   -2.2399 N.pl3    1 ZINC000000113426   -0.6300
14     H14     4.2724   -0.9943   -2.6764 H        1 ZINC000000113426    0.4600
15     C15     5.7322    0.6123   -2.8937 C.3      1 ZINC000000113426    0.0600
16     C16     6.1856    1.5405   -1.7477 C.3      1 ZINC000000113426    0.0600
17     N17     5.4069    1.0572   -0.5961 N.pl3    1 ZINC000000113426   -0.6400
18     H18    -0.9580    1.9046    0.0259 H        1 ZINC000000113426    0.1300
19     H19     1.1654    3.1582    0.0052 H        1 ZINC000000113426    0.1300
20     H20     3.3020    1.9448   -0.0145 H        1 ZINC000000113426    0.1100
21     H21    -0.9284   -0.5523    0.0088 H        1 ZINC000000113426    0.1300
22     H22     0.3840   -2.5419    0.6520 H        1 ZINC000000113426    0.0900
23     H23     0.9091   -2.5340   -1.0458 H        1 ZINC000000113426    0.0900
24     H24     2.6796   -2.5917    1.4322 H        1 ZINC000000113426    0.0800
25     H25     2.4991   -3.8654    0.1984 H        1 ZINC000000113426    0.0900
26     H26     4.5432   -2.6516   -0.3128 H        1 ZINC000000113426    0.0900
27     H27     3.3254   -2.1679   -1.5213 H        1 ZINC000000113426    0.0700
28     H28     6.5753    0.0419   -3.2833 H        1 ZINC000000113426    0.1300
29     H29     5.2548    1.1864   -3.6879 H        1 ZINC000000113426    0.1300
30     H30     7.2548    1.4330   -1.5656 H        1 ZINC000000113426    0.1300
31     H31     5.9343    2.5775   -1.9702 H        1 ZINC000000113426    0.1300
32     H32     5.4463    1.4228    0.3015 H        1 ZINC000000113426    0.4600
@<TRIPOS>BOND
1     1     6     ar
2     1     2     ar
3     1     18    1
4     2     3     ar
5     2     19    1
6     3     4     ar
7     3     20    1
8     4     10    1
9     4     5     ar
10    5     6     ar
11    5     7     1
12    6     21    1
13    7     8     1
14    7     22    1
15    7     23    1
16    8     9     1
17    8     24    1
18    8     25    1
19    9     10    1
20    9     26    1
21    9     27    1
22    10    11    1
23    10    12    1
24    12    17    ar
25    12    13    ar
26    13    14    1
27    13    15    1
28    15    16    1
29    15    28    1
30    15    29    1
31    16    17    1
32    16    30    1
33    16    31    1
34    17    32    1
@<TRIPOS>SUBSTRUCTURE
1   ZINC000000113426 1     RESIDUE    1   A     ZIN   1
