@<TRIPOS>MOLECULE
ZINC000002016258
47    47    1     0     0
SMALL
USER_CHARGES
@<TRIPOS>ATOM
1      C1      1.7587   -2.4256    2.5978 C.3      1 ZINC000002016258   -0.1500
2      C2      0.9081   -2.0058    1.3973 C.3      1 ZINC000002016258   -0.1200
3      C3      1.5670   -2.4994    0.1077 C.3      1 ZINC000002016258   -0.1300
4      C4      0.7163   -2.0796   -1.0927 C.3      1 ZINC000002016258   -0.1200
5      C5      1.4378   -2.4603   -2.3871 C.3      1 ZINC000002016258   -0.0900
6      H6      2.4407   -2.0334   -2.3831 H        1 ZINC000002016258    0.0800
7      C7      0.6568   -1.9165   -3.5851 C.3      1 ZINC000002016258   -0.1200
8      C8      0.6847   -0.3870   -3.5604 C.3      1 ZINC000002016258   -0.1500
9      C9      1.5324   -3.9840   -2.4890 C.3      1 ZINC000002016258    0.0700
10     O10     2.3191   -4.3431   -3.6554 O.3      1 ZINC000002016258   -0.3500
11     C11     2.4994   -5.6577   -3.8907 C.2      1 ZINC000002016258    0.5100
12     O12     2.0124   -6.4814   -3.1416 O.2      1 ZINC000002016258   -0.5200
13     C13     3.2871   -6.0965   -5.0565 C.ar     1 ZINC000002016258   -0.2000
14     C14     3.8530   -5.1497   -5.9164 C.ar     1 ZINC000002016258   -0.0100
15     C15     4.5852   -5.5613   -7.0001 C.ar     1 ZINC000002016258   -0.2200
16     C16     4.7652   -6.9200   -7.2452 C.ar     1 ZINC000002016258    0.2500
17     N17     5.5078   -7.3339   -8.3451 N.pl3    1 ZINC000002016258   -0.6300
18     C18     6.2029   -6.3455   -9.1735 C.3      1 ZINC000002016258    0.0900
19     C19     5.5952   -8.7584   -8.6759 C.3      1 ZINC000002016258    0.0800
20     C20     4.2036   -7.8652   -6.3909 C.ar     1 ZINC000002016258   -0.2200
21     C21     3.4751   -7.4604   -5.3022 C.ar     1 ZINC000002016258    0.0000
22     H22     1.8391   -3.5123    2.6238 H        1 ZINC000002016258    0.0500
23     H23     2.7537   -1.9897    2.5082 H        1 ZINC000002016258    0.0500
24     H24     1.2893   -2.0739    3.5165 H        1 ZINC000002016258    0.0500
25     H25    -0.0870   -2.4417    1.4868 H        1 ZINC000002016258    0.0600
26     H26     0.8276   -0.9191    1.3713 H        1 ZINC000002016258    0.0600
27     H27     2.5620   -2.0635    0.0182 H        1 ZINC000002016258    0.0600
28     H28     1.6474   -3.5861    0.1337 H        1 ZINC000002016258    0.0600
29     H29    -0.2471   -2.5876   -1.0508 H        1 ZINC000002016258    0.0700
30     H30     0.5598   -1.0012   -1.0677 H        1 ZINC000002016258    0.0800
31     H31     1.1131   -2.2733   -4.5085 H        1 ZINC000002016258    0.0700
32     H32    -0.3757   -2.2620   -3.5329 H        1 ZINC000002016258    0.0600
33     H33     0.2079   -0.0003   -4.4611 H        1 ZINC000002016258    0.0500
34     H34     0.1478   -0.0280   -2.6823 H        1 ZINC000002016258    0.0600
35     H35     1.7182   -0.0430   -3.5201 H        1 ZINC000002016258    0.0500
36     H36     2.0104   -4.3791   -1.5927 H        1 ZINC000002016258    0.0700
37     H37     0.5313   -4.4047   -2.5824 H        1 ZINC000002016258    0.0700
38     H38     3.7131   -4.0957   -5.7272 H        1 ZINC000002016258    0.1400
39     H39     5.0225   -4.8307   -7.6645 H        1 ZINC000002016258    0.1300
40     H40     7.2085   -6.1875   -8.7837 H        1 ZINC000002016258    0.0500
41     H41     6.2639   -6.7094  -10.1991 H        1 ZINC000002016258    0.0700
42     H42     5.6536   -5.4043   -9.1540 H        1 ZINC000002016258    0.0700
43     H43     4.9434   -9.3262   -8.0120 H        1 ZINC000002016258    0.0800
44     H44     5.2836   -8.9112   -9.7092 H        1 ZINC000002016258    0.0600
45     H45     6.6238   -9.0975   -8.5527 H        1 ZINC000002016258    0.0600
46     H46     4.3454   -8.9184   -6.5837 H        1 ZINC000002016258    0.1300
47     H47     3.0397   -8.1940   -4.6399 H        1 ZINC000002016258    0.1400
@<TRIPOS>BOND
1     1     2     1
2     1     22    1
3     1     23    1
4     1     24    1
5     2     3     1
6     2     25    1
7     2     26    1
8     3     4     1
9     3     27    1
10    3     28    1
11    4     5     1
12    4     29    1
13    4     30    1
14    5     6     1
15    5     7     1
16    5     9     1
17    7     8     1
18    7     31    1
19    7     32    1
20    8     33    1
21    8     34    1
22    8     35    1
23    9     10    1
24    9     36    1
25    9     37    1
26    10    11    1
27    11    12    2
28    11    13    1
29    13    21    ar
30    13    14    ar
31    14    15    ar
32    14    38    1
33    15    16    ar
34    15    39    1
35    16    17    1
36    16    20    ar
37    17    18    1
38    17    19    1
39    18    40    1
40    18    41    1
41    18    42    1
42    19    43    1
43    19    44    1
44    19    45    1
45    20    21    ar
46    20    46    1
47    21    47    1
@<TRIPOS>SUBSTRUCTURE
1   ZINC000002016258 1     RESIDUE    1   A     ZIN   1
