@<TRIPOS>MOLECULE
ZINC000003977764
84    86    1     0     0
SMALL
USER_CHARGES
@<TRIPOS>ATOM
1      C1      1.3367    1.0488   -0.6979 C.3      1 ZINC000003977764   -0.1400
2      C2      1.1502   -0.4506   -0.4570 C.3      1 ZINC000003977764   -0.1100
3      C3      1.4834   -0.7743    0.9766 C.2      1 ZINC000003977764    0.4400
4      O4      1.8340    0.1041    1.7285 O.2      1 ZINC000003977764   -0.4600
5      O5      1.3906   -2.0385    1.4182 O.3      1 ZINC000003977764   -0.3500
6      C6      1.7269   -2.2767    2.8105 C.3      1 ZINC000003977764    0.3100
7      H7      2.6905   -1.8192    3.0349 H        1 ZINC000003977764    0.1000
8      O8      0.7210   -1.7039    3.6483 O.3      1 ZINC000003977764   -0.7500
9      P9      1.0500   -1.0039    5.0604 P.3      1 ZINC000003977764    2.4400
10     O10     1.7414   -1.9714    5.9414 O.2      1 ZINC000003977764   -0.9800
11     C11    -0.5034   -0.4665    5.8488 C.3      1 ZINC000003977764   -0.7500
12     C12    -1.3515   -1.6926    6.1927 C.3      1 ZINC000003977764   -0.1100
13     C13    -2.6552   -1.2416    6.8544 C.3      1 ZINC000003977764   -0.1100
14     C14    -3.5033   -2.4677    7.1983 C.3      1 ZINC000003977764   -0.0900
15     C15    -4.7874   -2.0235    7.8501 C.ar     1 ZINC000003977764   -0.0800
16     C16    -4.8505   -1.8755    9.2230 C.ar     1 ZINC000003977764   -0.1200
17     C17    -6.0284   -1.4680    9.8209 C.ar     1 ZINC000003977764   -0.1200
18     C18    -7.1431   -1.2081    9.0457 C.ar     1 ZINC000003977764   -0.1300
19     C19    -7.0797   -1.3552    7.6727 C.ar     1 ZINC000003977764   -0.1200
20     C20    -5.9006   -1.7586    7.0744 C.ar     1 ZINC000003977764   -0.1200
21     C21     2.1242    0.4431    4.7856 C.3      1 ZINC000003977764   -0.7800
22     C22     3.4817   -0.0197    4.3228 C.2      1 ZINC000003977764    0.5700
23     O23     3.7234   -0.0997    3.1371 O.2      1 ZINC000003977764   -0.5500
24     N24     4.4272   -0.3445    5.2267 N.am     1 ZINC000003977764   -0.5700
25     C25     5.7927   -0.8041    4.9143 C.3      1 ZINC000003977764    0.1200
26     C26     6.6281   -0.4468    6.1690 C.3      1 ZINC000003977764   -0.1000
27     H27     6.9216    0.6028    6.1570 H        1 ZINC000003977764    0.0800
28     C28     7.8538   -1.3547    6.2885 C.3      1 ZINC000003977764   -0.0700
29     C29     8.7530   -1.1612    5.0658 C.3      1 ZINC000003977764   -0.1200
30     C30     9.9787   -2.0690    5.1853 C.3      1 ZINC000003977764   -0.1200
31     C31    10.7572   -1.7106    6.4528 C.3      1 ZINC000003977764   -0.1200
32     C32     9.8580   -1.9042    7.6755 C.3      1 ZINC000003977764   -0.1200
33     C33     8.6323   -0.9963    7.5559 C.3      1 ZINC000003977764   -0.1200
34     C34     5.6137   -0.7276    7.3090 C.3      1 ZINC000003977764   -0.1000
35     C35     4.2697   -0.2932    6.6876 C.3      1 ZINC000003977764    0.0400
36     H36     3.4803   -0.9794    6.9946 H        1 ZINC000003977764    0.1100
37     C37     3.9305    1.1076    7.1276 C.2      1 ZINC000003977764    0.4800
38     O38     3.9699    2.0249    6.3255 O.co2    1 ZINC000003977764   -0.6800
39     O39     3.6167    1.3236    8.2858 O.co2    1 ZINC000003977764   -0.6900
40     C40     1.8059   -3.7832    3.0655 C.3      1 ZINC000003977764   -0.1100
41     C41     2.8817   -4.3969    2.1672 C.3      1 ZINC000003977764   -0.1500
42     C42     2.1621   -4.0343    4.5321 C.3      1 ZINC000003977764   -0.1600
43     H43     2.3717    1.3235   -0.4945 H        1 ZINC000003977764    0.0700
44     H44     1.0957    1.2829   -1.7348 H        1 ZINC000003977764    0.0700
45     H45     0.6755    1.6081   -0.0360 H        1 ZINC000003977764    0.0600
46     H46     0.1152   -0.7253   -0.6604 H        1 ZINC000003977764    0.1000
47     H47     1.8114   -1.0099   -1.1189 H        1 ZINC000003977764    0.1000
48     H48    -0.2760    0.0854    6.7608 H        1 ZINC000003977764    0.1200
49     H49    -1.0554    0.1764    5.1631 H        1 ZINC000003977764    0.0900
50     H50    -1.5789   -2.2445    5.2807 H        1 ZINC000003977764    0.0700
51     H51    -0.7995   -2.3355    6.8783 H        1 ZINC000003977764    0.0900
52     H52    -2.4278   -0.6897    7.7664 H        1 ZINC000003977764    0.0700
53     H53    -3.2072   -0.5987    6.1688 H        1 ZINC000003977764    0.0600
54     H54    -3.7307   -3.0196    6.2863 H        1 ZINC000003977764    0.0700
55     H55    -2.9513   -3.1106    7.8840 H        1 ZINC000003977764    0.0800
56     H56    -3.9797   -2.0786    9.8286 H        1 ZINC000003977764    0.1200
57     H57    -6.0779   -1.3531   10.8936 H        1 ZINC000003977764    0.1200
58     H58    -8.0636   -0.8905    9.5129 H        1 ZINC000003977764    0.1200
59     H59    -7.9507   -1.1525    7.0671 H        1 ZINC000003977764    0.1200
60     H60    -5.8511   -1.8735    6.0017 H        1 ZINC000003977764    0.1200
61     H61     1.6807    1.0857    4.0250 H        1 ZINC000003977764    0.1200
62     H62     2.2282    1.0005    5.7165 H        1 ZINC000003977764    0.1500
63     H63     5.8014   -1.8811    4.7468 H        1 ZINC000003977764    0.0600
64     H64     6.1785   -0.2802    4.0398 H        1 ZINC000003977764    0.0700
65     H65     7.5318   -2.3947    6.3418 H        1 ZINC000003977764    0.0700
66     H66     8.1984   -1.4165    4.1629 H        1 ZINC000003977764    0.0600
67     H67     9.0750   -0.1212    5.0126 H        1 ZINC000003977764    0.0600
68     H68     9.6567   -3.1090    5.2386 H        1 ZINC000003977764    0.0600
69     H69    10.6193   -1.9312    4.3143 H        1 ZINC000003977764    0.0600
70     H70    11.6304   -2.3574    6.5379 H        1 ZINC000003977764    0.0600
71     H71    11.0792   -0.6706    6.3995 H        1 ZINC000003977764    0.0600
72     H72     9.5360   -2.9442    7.7287 H        1 ZINC000003977764    0.0600
73     H73    10.4126   -1.6488    8.5784 H        1 ZINC000003977764    0.0600
74     H74     8.9543    0.0437    7.5027 H        1 ZINC000003977764    0.0600
75     H75     7.9917   -1.1342    8.4270 H        1 ZINC000003977764    0.0700
76     H76     5.6012   -1.7879    7.5616 H        1 ZINC000003977764    0.0700
77     H77     5.8432   -0.1236    8.1868 H        1 ZINC000003977764    0.0800
78     H78     0.8420   -4.2405    2.8423 H        1 ZINC000003977764    0.0900
79     H79     3.8456   -3.9396    2.3904 H        1 ZINC000003977764    0.0600
80     H80     2.9380   -5.4701    2.3488 H        1 ZINC000003977764    0.0600
81     H81     2.6279   -4.2180    1.1223 H        1 ZINC000003977764    0.0600
82     H82     1.3269   -3.7347    5.1653 H        1 ZINC000003977764    0.0900
83     H83     2.3679   -5.0944    4.6797 H        1 ZINC000003977764    0.0600
84     H84     3.0452   -3.4525    4.7963 H        1 ZINC000003977764    0.0700
@<TRIPOS>BOND
1     1     2     1
2     1     43    1
3     1     44    1
4     1     45    1
5     2     3     1
6     2     46    1
7     2     47    1
8     3     4     2
9     3     5     1
10    5     6     1
11    6     7     1
12    6     8     1
13    6     40    1
14    8     9     1
15    9     10    2
16    9     11    1
17    9     21    1
18    11    12    1
19    11    48    1
20    11    49    1
21    12    13    1
22    12    50    1
23    12    51    1
24    13    14    1
25    13    52    1
26    13    53    1
27    14    15    1
28    14    54    1
29    14    55    1
30    15    20    ar
31    15    16    ar
32    16    17    ar
33    16    56    1
34    17    18    ar
35    17    57    1
36    18    19    ar
37    18    58    1
38    19    20    ar
39    19    59    1
40    20    60    1
41    21    22    1
42    21    61    1
43    21    62    1
44    22    23    2
45    22    24    am
46    24    35    1
47    24    25    1
48    25    26    1
49    25    63    1
50    25    64    1
51    26    27    1
52    26    28    1
53    26    34    1
54    28    33    1
55    28    29    1
56    28    65    1
57    29    30    1
58    29    66    1
59    29    67    1
60    30    31    1
61    30    68    1
62    30    69    1
63    31    32    1
64    31    70    1
65    31    71    1
66    32    33    1
67    32    72    1
68    32    73    1
69    33    74    1
70    33    75    1
71    34    35    1
72    34    76    1
73    34    77    1
74    35    36    1
75    35    37    1
76    37    38    ar
77    37    39    ar
78    40    41    1
79    40    42    1
80    40    78    1
81    41    79    1
82    41    80    1
83    41    81    1
84    42    82    1
85    42    83    1
86    42    84    1
@<TRIPOS>SUBSTRUCTURE
1   ZINC000003977764 1     RESIDUE    1   A     ZIN   1
