@<TRIPOS>MOLECULE
ZINC000019632912
34   36    0    0    0
SMALL
USER_CHARGES
NO_NAME
@<TRIPOS>ATOM
1 C1       -0.0187     1.5258     0.0104 C.3    1 <0>      -0.1500
2 C2        0.0021    -0.0041     0.0020 C.3    1 <0>      -0.1200
3 C3        0.7182    -0.4975    -1.2568 C.3    1 <0>      -0.1500
4 C4        0.7421    -0.5109     1.2415 C.3    1 <0>       0.1000
5 N5       -0.0083    -0.1401     2.4439 N.pl3  1 <0>      -0.4500
6 C6        0.1937     0.9657     3.2115 C.2    1 <0>       0.2200
7 N7       -0.6539     0.9772     4.2001 N.2    1 <0>      -0.4600
8 C8       -1.4490    -0.1170     4.1274 C.ar   1 <0>      -0.0500
9 C9       -1.0451    -0.8378     2.9992 C.ar   1 <0>       0.1000
10 C10      -1.7498    -2.0747     2.6910 C.ar   1 <0>      -0.1100
11 C11      -1.4135    -2.8596     1.5838 C.ar   1 <0>      -0.0900
12 C12      -2.1033    -4.0111     1.3370 C.ar   1 <0>      -0.1400
13 C13      -3.1378    -4.4129     2.1749 C.ar   1 <0>      -0.0900
14 C14      -3.4899    -3.6693     3.2620 C.ar   1 <0>      -0.1100
15 C15      -2.8027    -2.4802     3.5470 C.ar   1 <0>       0.1900
16 N16      -3.1321    -1.7326     4.6112 N.ar   1 <0>      -0.5700
17 C17      -2.5158    -0.6123     4.9109 C.ar   1 <0>       0.5100
18 N18      -2.9180     0.0996     6.0285 N.pl3  1 <0>      -0.8300
19 H19       1.0039     1.9031     0.0027 H      1 <0>       0.0600
20 H20      -0.5459     1.8868    -0.8726 H      1 <0>       0.0600
21 H21      -0.5289     1.8773     0.9072 H      1 <0>       0.0600
22 H22      -1.0205    -0.3814     0.0098 H      1 <0>       0.0800
23 H23       1.7408    -0.1202    -1.2645 H      1 <0>       0.0600
24 H24       0.7330    -1.5874    -1.2628 H      1 <0>       0.0600
25 H25       0.1910    -0.1364    -2.1398 H      1 <0>       0.0700
26 H26       0.8346    -1.5958     1.1912 H      1 <0>       0.1000
27 H27       1.7350    -0.0630     1.2804 H      1 <0>       0.1000
28 H28       0.9447     1.7200     3.0286 H      1 <0>       0.2200
29 H29      -0.6119    -2.5560     0.9269 H      1 <0>       0.1200
30 H30      -1.8432    -4.6166     0.4814 H      1 <0>       0.1200
31 H31      -3.6705    -5.3277     1.9611 H      1 <0>       0.1300
32 H32      -4.2962    -3.9952     3.9023 H      1 <0>       0.1400
33 H33      -3.6459    -0.2308     6.5780 H      1 <0>       0.4100
34 H34      -2.4718     0.9286     6.2619 H      1 <0>       0.4200
@<TRIPOS>BOND
1    1    2 1
2    1   19 1
3    1   20 1
4    1   21 1
5    2    3 1
6    2    4 1
7    2   22 1
8    3   23 1
9    3   24 1
10    3   25 1
11    4    5 1
12    4   26 1
13    4   27 1
14    5    9 1
15    5    6 1
16    6    7 2
17    6   28 1
18    7    8 1
19    8   17 ar
20    8    9 ar
21    9   10 ar
22   10   15 ar
23   10   11 ar
24   11   12 ar
25   11   29 1
26   12   13 ar
27   12   30 1
28   13   14 ar
29   13   31 1
30   14   15 ar
31   14   32 1
32   15   16 ar
33   16   17 ar
34   17   18 1
35   18   33 1
36   18   34 1
