@<TRIPOS>MOLECULE
ZINC000095626706
37    40    1     0     0
SMALL
USER_CHARGES
@<TRIPOS>ATOM
1      C1      0.1611    1.6692    0.3151 C.3      1 ZINC000095626706   -0.1200
2      C2      0.1071    0.1687    0.1857 C.cat    1 ZINC000095626706    0.3300
3      N3      0.0739   -0.5017   -0.9358 N.pl3    1 ZINC000095626706   -0.4700
4      H4      0.0915   -0.1108   -1.8234 H        1 ZINC000095626706    0.4700
5      C5      0.0125   -1.8167   -0.6672 C.2      1 ZINC000095626706    0.0300
6      C6      0.0056   -1.9657    0.6667 C.2      1 ZINC000095626706    0.0300
7      C7     -0.1056   -3.2517    1.4449 C.3      1 ZINC000095626706    0.1000
8      N8     -1.3173   -3.1712    2.2686 N.2      1 ZINC000095626706   -0.4600
9      C9     -1.4669   -2.2643    3.1703 C.2      1 ZINC000095626706    0.2700
10     C10    -2.7284   -2.3194    3.9433 C.ar     1 ZINC000095626706   -0.1100
11     C11    -2.9886   -3.4020    4.7834 C.ar     1 ZINC000095626706   -0.0500
12     C12    -4.1656   -3.4476    5.5015 C.ar     1 ZINC000095626706   -0.1200
13     C13    -5.0889   -2.4228    5.3904 C.ar     1 ZINC000095626706   -0.0700
14     C14    -4.8394   -1.3458    4.5600 C.ar     1 ZINC000095626706   -0.1500
15     C15    -3.6614   -1.2843    3.8389 C.ar     1 ZINC000095626706    0.1200
16     F16    -3.4176   -0.2317    3.0279 F        1 ZINC000095626706   -0.1400
17     C17    -0.5412   -1.1836    3.5264 C.ar     1 ZINC000095626706   -0.0600
18     C18    -0.3564   -0.8970    4.8876 C.ar     1 ZINC000095626706   -0.0600
19     C19     0.4776    0.1258    5.2805 C.ar     1 ZINC000095626706   -0.0100
20     Cl20    0.6977    0.4622    6.9693 Cl       1 ZINC000095626706   -0.0200
21     C21     1.1421    0.8870    4.3325 C.ar     1 ZINC000095626706   -0.0700
22     C22     0.9802    0.6109    2.9906 C.ar     1 ZINC000095626706   -0.1000
23     C23     0.1543   -0.4297    2.5793 C.ar     1 ZINC000095626706    0.1000
24     N24     0.0905   -0.7168    1.2135 N.pl3    1 ZINC000095626706   -0.3500
25     H25     1.2011    1.9952    0.3321 H        1 ZINC000095626706    0.1300
26     H26    -0.3489    2.1256   -0.5332 H        1 ZINC000095626706    0.1200
27     H27    -0.3297    1.9720    1.2400 H        1 ZINC000095626706    0.1200
28     H28    -0.0250   -2.6130   -1.3958 H        1 ZINC000095626706    0.2300
29     H29    -0.1815   -4.0942    0.7575 H        1 ZINC000095626706    0.1500
30     H30     0.7685   -3.3733    2.0846 H        1 ZINC000095626706    0.1100
31     H31    -2.2699   -4.2034    4.8713 H        1 ZINC000095626706    0.1400
32     H32    -4.3672   -4.2857    6.1521 H        1 ZINC000095626706    0.1400
33     H33    -6.0088   -2.4647    5.9547 H        1 ZINC000095626706    0.1400
34     H34    -5.5643   -0.5494    4.4775 H        1 ZINC000095626706    0.1500
35     H35    -0.8729   -1.4833    5.6332 H        1 ZINC000095626706    0.1600
36     H36     1.7861    1.6961    4.6439 H        1 ZINC000095626706    0.1700
37     H37     1.4983    1.2073    2.2542 H        1 ZINC000095626706    0.1600
@<TRIPOS>BOND
1     1     2     1
2     1     25    1
3     1     26    1
4     1     27    1
5     2     24    ar
6     2     3     ar
7     3     4     1
8     3     5     1
9     5     6     2
10    5     28    1
11    6     24    1
12    6     7     1
13    7     8     1
14    7     29    1
15    7     30    1
16    8     9     2
17    9     10    1
18    9     17    1
19    10    15    ar
20    10    11    ar
21    11    12    ar
22    11    31    1
23    12    13    ar
24    12    32    1
25    13    14    ar
26    13    33    1
27    14    15    ar
28    14    34    1
29    15    16    1
30    17    23    ar
31    17    18    ar
32    18    19    ar
33    18    35    1
34    19    20    1
35    19    21    ar
36    21    22    ar
37    21    36    1
38    22    23    ar
39    22    37    1
40    23    24    1
@<TRIPOS>SUBSTRUCTURE
1   ZINC000095626706 1     RESIDUE    1   A     ZIN   1
