@<TRIPOS>MOLECULE
ZINC000003830993
34    35    1     0     0
SMALL
USER_CHARGES
@<TRIPOS>ATOM
1      N1     -0.0116    1.0048    0.0076 N.4      1 ZINC000003830993   -0.6200
2      H2      0.0021   -0.0041    0.0020 H        1 ZINC000003830993    0.4100
3      H3      0.9350    1.3541    0.0004 H        1 ZINC000003830993    0.4300
4      H4     -0.4996    1.3391   -0.8099 H        1 ZINC000003830993    0.4400
5      C5     -0.6992    1.4786    1.2162 C.3      1 ZINC000003830993   -0.0500
6      H6     -1.7218    1.1013    1.2239 H        1 ZINC000003830993    0.1400
7      C7      0.0408    0.9717    2.4557 C.3      1 ZINC000003830993   -0.0800
8      C8     -0.0446   -0.5318    2.5119 C.ar     1 ZINC000003830993   -0.1200
9      C9     -1.0982   -1.1390    3.1699 C.ar     1 ZINC000003830993   -0.0500
10     C10    -1.1791   -2.5176    3.2230 C.ar     1 ZINC000003830993   -0.1100
11     I11    -2.7760   -3.4366    4.2202 I        1 ZINC000003830993    0.0000
12     C12    -0.2016   -3.2927    2.6148 C.ar     1 ZINC000003830993    0.1800
13     O13    -0.2788   -4.6485    2.6651 O.3      1 ZINC000003830993   -0.2500
14     C14    -0.9502   -5.2870    1.6701 C.ar     1 ZINC000003830993   -0.0300
15     C15    -1.5260   -4.5555    0.6416 C.ar     1 ZINC000003830993   -0.0800
16     C16    -2.2084   -5.2043   -0.3698 C.ar     1 ZINC000003830993   -0.2000
17     I17    -3.0774   -4.0997   -1.9234 I        1 ZINC000003830993   -0.0800
18     C18    -2.3177   -6.5873   -0.3565 C.ar     1 ZINC000003830993    0.3000
19     O19    -2.9889   -7.2260   -1.3521 O.3      1 ZINC000003830993   -0.6600
20     C20    -1.7418   -7.3188    0.6721 C.ar     1 ZINC000003830993   -0.2000
21     I21    -1.9061   -9.4073    0.6918 I        1 ZINC000003830993   -0.0700
22     C22    -1.0545   -6.6703    1.6803 C.ar     1 ZINC000003830993   -0.0200
23     C23     0.8547   -2.6805    1.9547 C.ar     1 ZINC000003830993   -0.1100
24     I24     2.3326   -3.8457    1.0342 I        1 ZINC000003830993    0.0000
25     C25     0.9279   -1.3015    1.9006 C.ar     1 ZINC000003830993   -0.0800
26     C26    -0.7196    2.9854    1.2245 C.2      1 ZINC000003830993    0.4900
27     O27    -0.2088    3.6071    0.3085 O.co2    1 ZINC000003830993   -0.6700
28     O28    -1.2470    3.5829    2.1472 O.co2    1 ZINC000003830993   -0.6300
29     H29     1.0866    1.2746    2.4037 H        1 ZINC000003830993    0.0900
30     H30    -0.4161    1.3953    3.3501 H        1 ZINC000003830993    0.1300
31     H31    -1.8586   -0.5353    3.6430 H        1 ZINC000003830993    0.1500
32     H32    -1.4412   -3.4789    0.6315 H        1 ZINC000003830993    0.1000
33     H33    -0.6059   -7.2397    2.4809 H        1 ZINC000003830993    0.1100
34     H34     1.7496   -0.8245    1.3870 H        1 ZINC000003830993    0.1400
@<TRIPOS>BOND
1     1     2     1
2     1     3     1
3     1     4     1
4     1     5     1
5     5     6     1
6     5     7     1
7     5     26    1
8     7     8     1
9     7     29    1
10    7     30    1
11    8     25    ar
12    8     9     ar
13    9     10    ar
14    9     31    1
15    10    11    1
16    10    12    ar
17    12    13    1
18    12    23    ar
19    13    14    1
20    14    22    ar
21    14    15    ar
22    15    16    ar
23    15    32    1
24    16    17    1
25    16    18    ar
26    18    19    1
27    18    20    ar
28    20    21    1
29    20    22    ar
30    22    33    1
31    23    24    1
32    23    25    ar
33    25    34    1
34    26    27    ar
35    26    28    ar
@<TRIPOS>SUBSTRUCTURE
1   ZINC000003830993 1     RESIDUE    1   A     ZIN   1
