@<TRIPOS>MOLECULE
ZINC000002019954
39    39    1     0     0
SMALL
USER_CHARGES
@<TRIPOS>ATOM
1      C1     -2.0810    2.3636   -1.0779 C.3      1 ZINC000002019954   -0.1500
2      C2     -1.6438    0.9112   -1.2782 C.3      1 ZINC000002019954   -0.1200
3      C3     -2.6785   -0.0242   -0.6493 C.3      1 ZINC000002019954    0.0600
4      N4     -2.2588   -1.4187   -0.8416 N.3      1 ZINC000002019954   -0.6700
5      C5     -3.2306   -2.3475   -0.2491 C.3      1 ZINC000002019954    0.0700
6      H6     -4.2363   -1.9435   -0.3648 H        1 ZINC000002019954    0.0800
7      C7     -2.9216   -2.5285    1.2384 C.3      1 ZINC000002019954   -0.1400
8      C8     -3.1413   -3.6804   -0.9466 C.2      1 ZINC000002019954    0.5200
9      O9     -2.3464   -3.8409   -1.8484 O.2      1 ZINC000002019954   -0.5100
10     N10    -3.9448   -4.6941   -0.5682 N.am     1 ZINC000002019954   -0.6500
11     C11    -3.9466   -5.8889   -1.2883 C.2      1 ZINC000002019954    0.2400
12     C12    -5.0838   -6.4578   -1.8125 C.2      1 ZINC000002019954   -0.3100
13     C13    -6.3917   -5.9298   -1.7029 C.2      1 ZINC000002019954    0.5400
14     O14    -6.5657   -4.8342   -1.2022 O.2      1 ZINC000002019954   -0.5000
15     O15    -7.4466   -6.6410   -2.1537 O.3      1 ZINC000002019954   -0.3500
16     C16    -8.7384   -6.0468   -2.0110 C.3      1 ZINC000002019954    0.0400
17     S17    -4.6503   -7.9466   -2.6412 S.3      1 ZINC000002019954    0.2800
18     C18    -3.0018   -7.7410   -2.2547 C.2      1 ZINC000002019954   -0.2200
19     C19    -2.8057   -6.6206   -1.5543 C.2      1 ZINC000002019954   -0.1100
20     C20    -1.4411   -6.1919   -1.0799 C.3      1 ZINC000002019954   -0.0800
21     H21    -1.3439    3.0300   -1.5260 H        1 ZINC000002019954    0.0600
22     H22    -3.0492    2.5206   -1.5534 H        1 ZINC000002019954    0.0500
23     H23    -2.1613    2.5751   -0.0117 H        1 ZINC000002019954    0.0600
24     H24    -1.5635    0.6997   -2.3445 H        1 ZINC000002019954    0.0600
25     H25    -0.6757    0.7543   -0.8027 H        1 ZINC000002019954    0.0700
26     H26    -2.7588    0.1873    0.4169 H        1 ZINC000002019954    0.0700
27     H27    -3.6467    0.1327   -1.1248 H        1 ZINC000002019954    0.0300
28     H28    -2.1147   -1.6214   -1.8195 H        1 ZINC000002019954    0.3600
29     H29    -2.9862   -1.5644    1.7428 H        1 ZINC000002019954    0.0700
30     H30    -3.6427   -3.2176    1.6780 H        1 ZINC000002019954    0.0600
31     H31    -1.9158   -2.9324    1.3540 H        1 ZINC000002019954    0.0700
32     H32    -4.5218   -4.5929    0.2049 H        1 ZINC000002019954    0.4200
33     H33    -9.4949   -6.7212   -2.4121 H        1 ZINC000002019954    0.1100
34     H34    -8.9389   -5.8624   -0.9556 H        1 ZINC000002019954    0.0600
35     H35    -8.7666   -5.1034   -2.5564 H        1 ZINC000002019954    0.0600
36     H36    -2.2177   -8.4257   -2.5426 H        1 ZINC000002019954    0.1800
37     H37    -0.9210   -5.6767   -1.8875 H        1 ZINC000002019954    0.0800
38     H38    -1.5470   -5.5194   -0.2287 H        1 ZINC000002019954    0.0600
39     H39    -0.8682   -7.0695   -0.7805 H        1 ZINC000002019954    0.0600
@<TRIPOS>BOND
1     1     2     1
2     1     21    1
3     1     22    1
4     1     23    1
5     2     3     1
6     2     24    1
7     2     25    1
8     3     4     1
9     3     26    1
10    3     27    1
11    4     5     1
12    4     28    1
13    5     6     1
14    5     7     1
15    5     8     1
16    7     29    1
17    7     30    1
18    7     31    1
19    8     9     2
20    8     10    am
21    10    11    1
22    10    32    1
23    11    19    1
24    11    12    2
25    12    13    1
26    12    17    1
27    13    14    2
28    13    15    1
29    15    16    1
30    16    33    1
31    16    34    1
32    16    35    1
33    17    18    1
34    18    19    2
35    18    36    1
36    19    20    1
37    20    37    1
38    20    38    1
39    20    39    1
@<TRIPOS>SUBSTRUCTURE
1   ZINC000002019954 1     RESIDUE    1   A     ZIN   1
