@<TRIPOS>MOLECULE
ZINC000003830947
53    53    1     0     0
SMALL
USER_CHARGES
@<TRIPOS>ATOM
1      C1      1.9634    1.3790   -1.1964 C.3      1 ZINC000003830947   -0.1900
2      C2      0.9394    1.4372   -0.0610 C.3      1 ZINC000003830947    0.0900
3      H3      0.1111    0.7647   -0.2840 H        1 ZINC000003830947    0.0900
4      O4      0.4472    2.7725    0.0685 O.3      1 ZINC000003830947   -0.5400
5      C5      1.5950    1.0161    1.2289 C.2      1 ZINC000003830947    0.5300
6      O6      1.7177    1.8128    2.1351 O.2      1 ZINC000003830947   -0.4800
7      N7      2.0451   -0.2458    1.3755 N.am     1 ZINC000003830947   -0.7000
8      C8      2.7469   -0.6091    2.5317 C.ar     1 ZINC000003830947    0.2200
9      C9      2.0567   -1.0651    3.6454 C.ar     1 ZINC000003830947   -0.0600
10     I10    -0.0327   -1.2097    3.5947 I        1 ZINC000003830947    0.0200
11     C11     2.7533   -1.4284    4.8006 C.ar     1 ZINC000003830947   -0.0400
12     C12     2.0174   -1.9145    5.9862 C.2      1 ZINC000003830947    0.5600
13     O13     1.7917   -3.1018    6.1169 O.2      1 ZINC000003830947   -0.5000
14     N14     1.5964   -1.0414    6.9227 N.am     1 ZINC000003830947   -0.6900
15     C15     0.8667   -1.5232    8.0981 C.3      1 ZINC000003830947    0.1500
16     C16     1.8636   -1.9673    9.1705 C.3      1 ZINC000003830947    0.0700
17     O17     2.6089   -0.8361    9.6257 O.3      1 ZINC000003830947   -0.5400
18     C18    -0.0097   -0.3976    8.6512 C.3      1 ZINC000003830947    0.0700
19     O19     0.8214    0.6616    9.1301 O.3      1 ZINC000003830947   -0.5400
20     C20     4.1438   -1.3323    4.8332 C.ar     1 ZINC000003830947   -0.0500
21     I21     5.1937   -1.8764    6.5626 I        1 ZINC000003830947    0.0300
22     C22     4.8340   -0.8736    3.7121 C.ar     1 ZINC000003830947   -0.0400
23     C23     6.3077   -0.7698    3.7418 C.2      1 ZINC000003830947    0.5600
24     O24     6.9906   -1.7147    3.3972 O.2      1 ZINC000003830947   -0.5000
25     N25     6.8947    0.3723    4.1509 N.am     1 ZINC000003830947   -0.6900
26     C26     8.3558    0.4752    4.1804 C.3      1 ZINC000003830947    0.1500
27     C27     8.8666    0.8808    2.7963 C.3      1 ZINC000003830947    0.0700
28     O28     8.4013    2.1952    2.4833 O.3      1 ZINC000003830947   -0.5400
29     C29     8.7722    1.5303    5.2071 C.3      1 ZINC000003830947    0.0700
30     O30     8.3113    2.8150    4.7836 O.3      1 ZINC000003830947   -0.5400
31     C31     4.1309   -0.5175    2.5585 C.ar     1 ZINC000003830947   -0.0600
32     I32     5.1667    0.1719    0.8730 I        1 ZINC000003830947    0.0300
33     H33     2.3388    0.3604   -1.2952 H        1 ZINC000003830947    0.0700
34     H34     1.4892    1.6836   -2.1293 H        1 ZINC000003830947    0.0800
35     H35     2.7917    2.0515   -0.9733 H        1 ZINC000003830947    0.0700
36     H36     0.0117    3.1100   -0.7261 H        1 ZINC000003830947    0.3900
37     H37     1.8829   -0.9024    0.6801 H        1 ZINC000003830947    0.4200
38     H38     1.7765   -0.0940    6.8184 H        1 ZINC000003830947    0.4100
39     H39     0.2380   -2.3673    7.8147 H        1 ZINC000003830947    0.1100
40     H40     1.3235   -2.4076   10.0086 H        1 ZINC000003830947    0.0500
41     H41     2.5454   -2.7060    8.7492 H        1 ZINC000003830947    0.0500
42     H42     3.2616   -1.0439   10.3082 H        1 ZINC000003830947    0.3700
43     H43    -0.6590   -0.0210    7.8609 H        1 ZINC000003830947    0.0500
44     H44    -0.6186   -0.7803    9.4702 H        1 ZINC000003830947    0.0600
45     H45     0.3318    1.4109    9.4960 H        1 ZINC000003830947    0.3700
46     H46     6.3498    1.1262    4.4258 H        1 ZINC000003830947    0.4100
47     H47     8.7824   -0.4890    4.4568 H        1 ZINC000003830947    0.1100
48     H48     9.9565    0.8711    2.7940 H        1 ZINC000003830947    0.0500
49     H49     8.4954    0.1770    2.0514 H        1 ZINC000003830947    0.0500
50     H50     8.6877    2.5181    1.6180 H        1 ZINC000003830947    0.3700
51     H51     8.3340    1.2880    6.1752 H        1 ZINC000003830947    0.0500
52     H52     9.8587    1.5445    5.2934 H        1 ZINC000003830947    0.0600
53     H53     8.5401    3.5340    5.3884 H        1 ZINC000003830947    0.3700
@<TRIPOS>BOND
1     1     2     1
2     1     33    1
3     1     34    1
4     1     35    1
5     2     3     1
6     2     4     1
7     2     5     1
8     4     36    1
9     5     6     2
10    5     7     am
11    7     8     1
12    7     37    1
13    8     31    ar
14    8     9     ar
15    9     10    1
16    9     11    ar
17    11    12    1
18    11    20    ar
19    12    13    2
20    12    14    am
21    14    15    1
22    14    38    1
23    15    16    1
24    15    18    1
25    15    39    1
26    16    17    1
27    16    40    1
28    16    41    1
29    17    42    1
30    18    19    1
31    18    43    1
32    18    44    1
33    19    45    1
34    20    21    1
35    20    22    ar
36    22    23    1
37    22    31    ar
38    23    24    2
39    23    25    am
40    25    26    1
41    25    46    1
42    26    27    1
43    26    29    1
44    26    47    1
45    27    28    1
46    27    48    1
47    27    49    1
48    28    50    1
49    29    30    1
50    29    51    1
51    29    52    1
52    30    53    1
53    31    32    1
@<TRIPOS>SUBSTRUCTURE
1   ZINC000003830947 1     RESIDUE    1   A     ZIN   1
