@<TRIPOS>MOLECULE
ZINC000022116608
37   39    0    0    0
SMALL
USER_CHARGES
NO_NAME
@<TRIPOS>ATOM
1 O1        0.0021    -0.0041     0.0020 O.3    1 <0>      -0.6600
2 C2       -0.0164     1.3560     0.0095 C.ar   1 <0>       0.2700
3 C3       -1.2216     2.0356     0.0304 C.ar   1 <0>      -0.1700
4 Cl4      -2.7126     1.1469     0.0566 Cl     1 <0>      -0.0900
5 C5       -1.2459     3.4252     0.0311 C.ar   1 <0>      -0.0400
6 C6       -0.0674     4.1329    -0.0030 C.ar   1 <0>      -0.2300
7 C7        1.1455     3.4547    -0.0076 C.ar   1 <0>      -0.0700
8 C8        1.1767     2.0722     0.0020 C.ar   1 <0>      -0.0200
9 O9        2.3676     1.4157    -0.0061 O.3    1 <0>      -0.4900
10 C10      -0.0247     5.6404    -0.0697 C.3    1 <0>       0.0200
11 H11       0.0026     5.9518    -1.1139 H      1 <0>       0.0800
12 C12       1.2190     6.1314     0.6255 C.ar   1 <0>      -0.0900
13 C13       1.4233     5.8404     1.9617 C.ar   1 <0>      -0.0800
14 C14       2.5625     6.2893     2.6012 C.ar   1 <0>      -0.1400
15 C15       3.5021     7.0324     1.9016 C.ar   1 <0>       0.1100
16 O16       4.6238     7.4748     2.5285 O.3    1 <0>      -0.5000
17 C17       3.2950     7.3227     0.5609 C.ar   1 <0>      -0.1400
18 C18       2.1565     6.8674    -0.0753 C.ar   1 <0>      -0.1000
19 C19      -1.2509     6.2540     0.6051 C.3    1 <0>      -0.0100
20 N20      -2.2912     6.4626    -0.4080 N.4    1 <0>      -0.5000
21 H21      -3.0937     6.8977     0.0219 H      1 <0>       0.4200
22 H22      -1.9340     7.0649    -1.1345 H      1 <0>       0.4200
23 C23      -2.6908     5.1839    -0.9965 C.3    1 <0>       0.0000
24 C24      -2.5881     4.1077     0.0885 C.3    1 <0>      -0.1100
25 H25       2.0709     4.0116    -0.0145 H      1 <0>       0.1100
26 H26       2.7215     1.2321     0.8749 H      1 <0>       0.3700
27 H27       0.6914     5.2618     2.5059 H      1 <0>       0.1300
28 H28       2.7212     6.0623     3.6451 H      1 <0>       0.1300
29 H29       5.3682     6.8592     2.4837 H      1 <0>       0.4000
30 H30       4.0249     7.9013     0.0142 H      1 <0>       0.1300
31 H31       1.9950     7.0928    -1.1191 H      1 <0>       0.1300
32 H32      -1.6212     5.5774     1.3753 H      1 <0>       0.1400
33 H33      -0.9811     7.2099     1.0541 H      1 <0>       0.1300
34 H34      -3.7183     5.2485    -1.3546 H      1 <0>       0.1300
35 H35      -2.0267     4.9362    -1.8246 H      1 <0>       0.1300
36 H36      -3.3743     3.3681    -0.0631 H      1 <0>       0.1200
37 H37      -2.7145     4.5706     1.0672 H      1 <0>       0.0900
@<TRIPOS>BOND
1    1    2 1
2    2    8 ar
3    2    3 ar
4    3    4 1
5    3    5 ar
6    5   24 1
7    5    6 ar
8    6    7 ar
9    6   10 1
10    7    8 ar
11    7   25 1
12    8    9 1
13    9   26 1
14   10   11 1
15   10   12 1
16   10   19 1
17   12   18 ar
18   12   13 ar
19   13   14 ar
20   13   27 1
21   14   15 ar
22   14   28 1
23   15   16 1
24   15   17 ar
25   16   29 1
26   17   18 ar
27   17   30 1
28   18   31 1
29   19   20 1
30   19   32 1
31   19   33 1
32   20   21 1
33   20   22 1
34   20   23 1
35   23   24 1
36   23   34 1
37   23   35 1
38   24   36 1
39   24   37 1
