@<TRIPOS>MOLECULE
ZINC000003802690
35   37    0    0    0
SMALL
USER_CHARGES
NO_NAME
@<TRIPOS>ATOM
1 C1       -0.0157     1.3058     0.0092 C.2    1 <0>      -0.1100
2 C2        0.0021    -0.0041     0.0020 C.2    1 <0>      -0.1500
3 C3       -1.2055    -0.9180     0.0020 C.3    1 <0>      -0.0600
4 H4       -1.8128    -0.7329    -0.8841 H      1 <0>       0.1100
5 C5       -2.0381    -0.6844     1.2642 C.3    1 <0>       0.0800
6 O6       -2.6015     0.6284     1.2270 O.3    1 <0>      -0.5700
7 C7       -0.6712    -2.3652    -0.0178 C.3    1 <0>       0.1000
8 H8       -0.6211    -2.7688     0.9934 H      1 <0>       0.0700
9 O9       -1.4908    -3.1917    -0.8468 O.3    1 <0>      -0.5600
10 C10       0.7504    -2.2247    -0.6191 C.3    1 <0>      -0.1600
11 C11       1.2372    -0.8871    -0.0145 C.3    1 <0>       0.1600
12 H12       2.0154    -0.4480    -0.6388 H      1 <0>       0.1200
13 N13       1.7318    -1.0919     1.3492 N.pl3  1 <0>      -0.4400
14 C14       1.0158    -1.5831     2.4022 C.2    1 <0>       0.2000
15 N15       1.7678    -1.6309     3.4627 N.2    1 <0>      -0.4200
16 C16       3.0066    -1.1752     3.1553 C.2    1 <0>      -0.1500
17 C17       2.9978    -0.8313     1.7987 C.2    1 <0>       0.3100
18 N18       4.1085    -0.3479     1.2301 N.2    1 <0>      -0.5800
19 C19       5.2131    -0.1889     1.9244 C.2    1 <0>       0.6600
20 N20       6.3274     0.3108     1.2984 N.pl3  1 <0>      -0.8200
21 N21       5.2838    -0.5055     3.2483 N.am   1 <0>      -0.6600
22 C22       4.2032    -1.0028     3.8897 C.2    1 <0>       0.6000
23 O23       4.2563    -1.2890     5.0737 O.2    1 <0>      -0.5100
24 H24       0.9122     1.8585     0.0033 H      1 <0>       0.1000
25 H25      -0.9582     1.8330     0.0166 H      1 <0>       0.1200
26 H26      -2.8390    -1.4222     1.3129 H      1 <0>       0.0600
27 H27      -1.4007    -0.7815     2.1430 H      1 <0>       0.0500
28 H28      -3.1433     0.8458     1.9979 H      1 <0>       0.3800
29 H29      -1.1994    -4.1125    -0.8948 H      1 <0>       0.3900
30 H30       1.3882    -3.0501    -0.3030 H      1 <0>       0.0900
31 H31       0.7069    -2.1614    -1.7064 H      1 <0>       0.1100
32 H32      -0.0200    -1.8862     2.3613 H      1 <0>       0.2100
33 H33       6.2925     0.5411     0.3568 H      1 <0>       0.4300
34 H34       7.1500     0.4338     1.7976 H      1 <0>       0.4200
35 H35       6.1148    -0.3763     3.7317 H      1 <0>       0.4200
@<TRIPOS>BOND
1    1    2 2
2    1   24 1
3    1   25 1
4    2   11 1
5    2    3 1
6    3    4 1
7    3    5 1
8    3    7 1
9    5    6 1
10    5   26 1
11    5   27 1
12    6   28 1
13    7    8 1
14    7    9 1
15    7   10 1
16    9   29 1
17   10   11 1
18   10   30 1
19   10   31 1
20   11   12 1
21   11   13 1
22   13   17 1
23   13   14 1
24   14   15 2
25   14   32 1
26   15   16 1
27   16   22 1
28   16   17 2
29   17   18 1
30   18   19 2
31   19   20 1
32   19   21 1
33   20   33 1
34   20   34 1
35   21   22 am
36   21   35 1
37   22   23 2
