@<TRIPOS>MOLECULE
ZINC000000897240
51   54    0    0    0
SMALL
USER_CHARGES
NO_NAME
@<TRIPOS>ATOM
1 C1       -0.0178     1.4648     0.0101 C.3    1 <0>       0.0300
2 N2        0.0021    -0.0041     0.0020 N.3    1 <0>      -0.5300
3 C3        0.6302    -0.5060    -1.1958 C.3    1 <0>       0.0500
4 C4       -0.0904    -1.7516    -1.7464 C.3    1 <0>      -0.1100
5 C5       -0.5192    -2.7223    -0.6264 C.3    1 <0>      -0.1100
6 C6        0.5300    -2.8929     0.4385 C.3    1 <0>       0.1600
7 H7        1.5171    -2.7202     0.0096 H      1 <0>       0.1100
8 N8        0.4617    -4.2518     0.9816 N.am   1 <0>      -0.4200
9 N9       -0.7212    -4.6846     1.5813 N.2    1 <0>      -0.2100
10 C10      -0.8581    -5.8748     2.0853 C.2    1 <0>       0.1300
11 C11      -2.1644    -6.2789     2.7188 C.3    1 <0>      -0.0200
12 C12      -3.1378    -5.1313     2.6386 C.ar   1 <0>      -0.0700
13 C13      -3.1917    -4.1985     3.6575 C.ar   1 <0>      -0.0900
14 C14      -4.0843    -3.1458     3.5845 C.ar   1 <0>      -0.1100
15 C15      -4.9240    -3.0256     2.4915 C.ar   1 <0>      -0.0300
16 Cl16     -6.0450    -1.7033     2.3988 Cl     1 <0>      -0.0700
17 C17      -4.8696    -3.9595     1.4721 C.ar   1 <0>      -0.1100
18 C18      -3.9726    -5.0086     1.5436 C.ar   1 <0>      -0.0900
19 C19       0.2555    -6.8224     2.0373 C.ar   1 <0>      -0.0600
20 C20       0.1502    -8.1096     2.5671 C.ar   1 <0>      -0.1000
21 C21       1.2283    -8.9635     2.4970 C.ar   1 <0>      -0.0900
22 C22       2.4178    -8.5588     1.9055 C.ar   1 <0>      -0.1100
23 C23       2.5452    -7.2933     1.3758 C.ar   1 <0>      -0.0500
24 C24       1.4672    -6.4118     1.4354 C.ar   1 <0>      -0.1300
25 C25       1.5428    -5.0532     0.8836 C.2    1 <0>       0.5300
26 O26       2.5639    -4.6554     0.3517 O.2    1 <0>      -0.5200
27 C27       0.2688    -1.8685     1.5653 C.3    1 <0>      -0.1100
28 C28       0.7105    -0.5307     1.1875 C.3    1 <0>       0.0600
29 H29       1.0047     1.8421     0.0024 H      1 <0>       0.0300
30 H30      -0.5450     1.8259    -0.8730 H      1 <0>       0.0700
31 H31      -0.5280     1.8163     0.9069 H      1 <0>       0.0700
32 H32       0.6189     0.2750    -1.9560 H      1 <0>       0.0700
33 H33       1.6649    -0.7653    -0.9715 H      1 <0>       0.0400
34 H34      -0.9760    -1.4332    -2.2963 H      1 <0>       0.0700
35 H35       0.5790    -2.2740    -2.4298 H      1 <0>       0.0600
36 H36      -1.4303    -2.3434    -0.1635 H      1 <0>       0.0800
37 H37      -0.7318    -3.6958    -1.0684 H      1 <0>       0.0600
38 H38      -2.5735    -7.1400     2.1903 H      1 <0>       0.1100
39 H39      -1.9960    -6.5402     3.7636 H      1 <0>       0.1100
40 H40      -2.5365    -4.2926     4.5109 H      1 <0>       0.1300
41 H41      -4.1266    -2.4173     4.3807 H      1 <0>       0.1300
42 H42      -5.5250    -3.8664     0.6188 H      1 <0>       0.1300
43 H43      -3.9298    -5.7375     0.7477 H      1 <0>       0.1300
44 H44      -0.7706    -8.4335     3.0294 H      1 <0>       0.1400
45 H45       1.1479    -9.9595     2.9069 H      1 <0>       0.1400
46 H46       3.2521    -9.2431     1.8606 H      1 <0>       0.1400
47 H47       3.4737    -6.9866     0.9173 H      1 <0>       0.1400
48 H48      -0.7991    -1.8427     1.7822 H      1 <0>       0.0800
49 H49       0.8052    -2.1806     2.4614 H      1 <0>       0.0700
50 H50       1.7788    -0.5611     0.9734 H      1 <0>       0.0400
51 H51       0.5418     0.1447     2.0262 H      1 <0>       0.0700
@<TRIPOS>BOND
1    1    2 1
2    1   29 1
3    1   30 1
4    1   31 1
5    2   28 1
6    2    3 1
7    3    4 1
8    3   32 1
9    3   33 1
10    4    5 1
11    4   34 1
12    4   35 1
13    5    6 1
14    5   36 1
15    5   37 1
16    6    7 1
17    6    8 1
18    6   27 1
19    8   25 am
20    8    9 1
21    9   10 2
22   10   11 1
23   10   19 1
24   11   12 1
25   11   38 1
26   11   39 1
27   12   18 ar
28   12   13 ar
29   13   14 ar
30   13   40 1
31   14   15 ar
32   14   41 1
33   15   16 1
34   15   17 ar
35   17   18 ar
36   17   42 1
37   18   43 1
38   19   24 ar
39   19   20 ar
40   20   21 ar
41   20   44 1
42   21   22 ar
43   21   45 1
44   22   23 ar
45   22   46 1
46   23   24 ar
47   23   47 1
48   24   25 1
49   25   26 2
50   27   28 1
51   27   48 1
52   27   49 1
53   28   50 1
54   28   51 1
