@<TRIPOS>MOLECULE
ZINC000253917094
22    22    1     0     0
SMALL
USER_CHARGES
@<TRIPOS>ATOM
1      C1     -0.0184    1.5028    0.0103 C.3      1 ZINC000253917094   -0.1400
2      C2      0.0021   -0.0041    0.0020 C.2      1 ZINC000253917094    0.4800
3      O3      1.0638   -0.5979   -0.0113 O.2      1 ZINC000253917094   -0.5300
4      N4     -1.1375   -0.6829    0.0093 N.2      1 ZINC000253917094   -0.5900
5      C5     -1.1194   -2.0182    0.0019 C.2      1 ZINC000253917094    0.3600
6      S6      0.2653   -3.0422   -0.0092 S.3      1 ZINC000253917094    0.2600
7      C7     -0.6632   -4.5511   -0.0130 C.2      1 ZINC000253917094   -0.5600
8      S8     -0.0242   -6.1932   -0.0237 S.o2     1 ZINC000253917094    2.7400
9      N9      0.6513   -6.4467   -1.5142 N.am     1 ZINC000253917094   -1.2400
10     O10     1.0462   -6.2132    0.9106 O.2      1 ZINC000253917094   -0.9200
11     O11    -1.1463   -7.0609    0.0612 O.2      1 ZINC000253917094   -0.9200
12     N12    -1.9057   -4.1979   -0.0060 N.2      1 ZINC000253917094   -0.0900
13     N13    -2.1794   -2.8475    0.0076 N.pl3    1 ZINC000253917094   -0.3800
14     C14    -3.5538   -2.3404    0.0165 C.3      1 ZINC000253917094    0.0900
15     H15     1.0042    1.8801    0.0026 H        1 ZINC000253917094    0.0900
16     H16    -0.5455    1.8639   -0.8728 H        1 ZINC000253917094    0.0900
17     H17    -0.5286    1.8543    0.9071 H        1 ZINC000253917094    0.0900
18     H18     1.4018   -7.0537   -1.6097 H        1 ZINC000253917094    0.4300
19     H19     0.2965   -5.9881   -2.2919 H        1 ZINC000253917094    0.4200
20     H20    -4.2504   -3.1787    0.0103 H        1 ZINC000253917094    0.1100
21     H21    -3.7142   -1.7413    0.9129 H        1 ZINC000253917094    0.1000
22     H22    -3.7194   -1.7239   -0.8670 H        1 ZINC000253917094    0.1000
@<TRIPOS>BOND
1     1     2     1
2     1     15    1
3     1     16    1
4     1     17    1
5     2     3     2
6     2     4     1
7     4     5     2
8     5     13    1
9     5     6     1
10    6     7     1
11    7     8     1
12    7     12    2
13    8     9     am
14    8     10    2
15    8     11    2
16    9     18    1
17    9     19    1
18    12    13    1
19    13    14    1
20    14    20    1
21    14    21    1
22    14    22    1
@<TRIPOS>SUBSTRUCTURE
1   ZINC000253917094 1     RESIDUE    1   A     ZIN   1
