@<TRIPOS>MOLECULE
ZINC000095619100
65    67    1     0     0
SMALL
USER_CHARGES
@<TRIPOS>ATOM
1      C1      0.0463   -4.0445   -8.1040 C.3      1 ZINC000095619100    0.0200
2      O2      0.9326   -4.0746   -6.9835 O.3      1 ZINC000095619100   -0.3100
3      C3      1.2971   -2.8769   -6.4524 C.ar     1 ZINC000095619100    0.1100
4      C4      0.8078   -1.6996   -6.9940 C.ar     1 ZINC000095619100   -0.1700
5      C5      1.1791   -0.4826   -6.4524 C.ar     1 ZINC000095619100   -0.1100
6      C6      2.0385   -0.4374   -5.3709 C.ar     1 ZINC000095619100   -0.1200
7      C7      2.5309   -1.6089   -4.8257 C.ar     1 ZINC000095619100   -0.1700
8      C8      2.1581   -2.8316   -5.3596 C.ar     1 ZINC000095619100    0.0900
9      O9      2.6415   -3.9846   -4.8246 O.3      1 ZINC000095619100   -0.2900
10     C10     3.5301   -3.8612   -3.7123 C.3      1 ZINC000095619100    0.0300
11     C11     3.9656   -5.2534   -3.2505 C.3      1 ZINC000095619100    0.0900
12     H12     3.0839   -5.8578   -3.0375 H        1 ZINC000095619100    0.1400
13     O13     4.7339   -5.8782   -4.2807 O.3      1 ZINC000095619100   -0.5400
14     C14     4.8160   -5.1280   -1.9848 C.3      1 ZINC000095619100   -0.0400
15     N15     5.2464   -6.4635   -1.5498 N.4      1 ZINC000095619100   -0.3800
16     H16     5.8277   -6.8781   -2.2628 H        1 ZINC000095619100    0.4200
17     C17     4.0665   -7.3095   -1.3273 C.3      1 ZINC000095619100   -0.0100
18     C18     4.5149   -8.7064   -0.8923 C.3      1 ZINC000095619100    0.0300
19     N19     5.3042   -8.6019    0.3431 N.3      1 ZINC000095619100   -0.5200
20     C20     5.7063   -9.9301    0.8249 C.3      1 ZINC000095619100    0.0400
21     C21     6.2945   -9.8063    2.2068 C.2      1 ZINC000095619100    0.5100
22     O22     6.3713   -8.7186    2.7381 O.2      1 ZINC000095619100   -0.5000
23     N23     6.7354  -10.9041    2.8524 N.am     1 ZINC000095619100   -0.6700
24     C24     7.2085  -10.8011    4.1652 C.ar     1 ZINC000095619100    0.1200
25     C25     8.4758  -11.2691    4.4869 C.ar     1 ZINC000095619100   -0.0900
26     C26     9.3439  -11.8884    3.4221 C.3      1 ZINC000095619100   -0.1100
27     C27     8.9398  -11.1659    5.7837 C.ar     1 ZINC000095619100   -0.1100
28     C28     8.1438  -10.5978    6.7613 C.ar     1 ZINC000095619100   -0.1100
29     C29     6.8812  -10.1312    6.4443 C.ar     1 ZINC000095619100   -0.1100
30     C30     6.4139  -10.2254    5.1480 C.ar     1 ZINC000095619100   -0.0700
31     C31     5.0379   -9.7167    4.8034 C.3      1 ZINC000095619100   -0.1100
32     C32     6.4757   -7.7374    0.1425 C.3      1 ZINC000095619100    0.0200
33     C33     6.0108   -6.3485   -0.3009 C.3      1 ZINC000095619100    0.0000
34     H34    -0.1634   -5.0636   -8.4289 H        1 ZINC000095619100    0.1000
35     H35    -0.8849   -3.5556   -7.8177 H        1 ZINC000095619100    0.0600
36     H36     0.5110   -3.4914   -8.9202 H        1 ZINC000095619100    0.0600
37     H37     0.1367   -1.7321   -7.8395 H        1 ZINC000095619100    0.1400
38     H38     0.7969    0.4346   -6.8756 H        1 ZINC000095619100    0.1300
39     H39     2.3264    0.5151   -4.9509 H        1 ZINC000095619100    0.1300
40     H40     3.2029   -1.5708   -3.9811 H        1 ZINC000095619100    0.1300
41     H41     4.4070   -3.2863   -4.0099 H        1 ZINC000095619100    0.0800
42     H42     3.0207   -3.3503   -2.8953 H        1 ZINC000095619100    0.0800
43     H43     5.5354   -5.3940   -4.5222 H        1 ZINC000095619100    0.3900
44     H44     5.6921   -4.5145   -2.1950 H        1 ZINC000095619100    0.1400
45     H45     4.2264   -4.6613   -1.1957 H        1 ZINC000095619100    0.1500
46     H46     3.4449   -6.8684   -0.5481 H        1 ZINC000095619100    0.1400
47     H47     3.4929   -7.3834   -2.2513 H        1 ZINC000095619100    0.1400
48     H48     3.6392   -9.3301   -0.7127 H        1 ZINC000095619100    0.1300
49     H49     5.1253   -9.1533   -1.6771 H        1 ZINC000095619100    0.0600
50     H50     4.8346  -10.5837    0.8583 H        1 ZINC000095619100    0.1200
51     H51     6.4508  -10.3515    0.1495 H        1 ZINC000095619100    0.0800
52     H52     6.7247  -11.7658    2.4070 H        1 ZINC000095619100    0.4100
53     H53    10.0041  -11.1284    3.0041 H        1 ZINC000095619100    0.0700
54     H54     9.9416  -12.6878    3.8602 H        1 ZINC000095619100    0.0700
55     H55     8.7140  -12.2970    2.6320 H        1 ZINC000095619100    0.0600
56     H56     9.9253  -11.5297    6.0345 H        1 ZINC000095619100    0.1300
57     H57     8.5088  -10.5186    7.7747 H        1 ZINC000095619100    0.1300
58     H58     6.2617   -9.6886    7.2102 H        1 ZINC000095619100    0.1300
59     H59     5.0812   -8.6417    4.6286 H        1 ZINC000095619100    0.0800
60     H60     4.6804  -10.2171    3.9035 H        1 ZINC000095619100    0.0500
61     H61     4.3568   -9.9234    5.6290 H        1 ZINC000095619100    0.0600
62     H62     7.0305   -7.6541    1.0770 H        1 ZINC000095619100    0.1400
63     H63     7.1184   -8.1683   -0.6252 H        1 ZINC000095619100    0.0600
64     H64     6.8788   -5.7098   -0.4640 H        1 ZINC000095619100    0.1400
65     H65     5.3793   -5.9125    0.4732 H        1 ZINC000095619100    0.1400
@<TRIPOS>BOND
1     1     2     1
2     1     34    1
3     1     35    1
4     1     36    1
5     2     3     1
6     3     8     ar
7     3     4     ar
8     4     5     ar
9     4     37    1
10    5     6     ar
11    5     38    1
12    6     7     ar
13    6     39    1
14    7     8     ar
15    7     40    1
16    8     9     1
17    9     10    1
18    10    11    1
19    10    41    1
20    10    42    1
21    11    12    1
22    11    13    1
23    11    14    1
24    13    43    1
25    14    15    1
26    14    44    1
27    14    45    1
28    15    16    1
29    15    33    1
30    15    17    1
31    17    18    1
32    17    46    1
33    17    47    1
34    18    19    1
35    18    48    1
36    18    49    1
37    19    20    1
38    19    32    1
39    20    21    1
40    20    50    1
41    20    51    1
42    21    22    2
43    21    23    am
44    23    24    1
45    23    52    1
46    24    30    ar
47    24    25    ar
48    25    26    1
49    25    27    ar
50    26    53    1
51    26    54    1
52    26    55    1
53    27    28    ar
54    27    56    1
55    28    29    ar
56    28    57    1
57    29    30    ar
58    29    58    1
59    30    31    1
60    31    59    1
61    31    60    1
62    31    61    1
63    32    33    1
64    32    62    1
65    32    63    1
66    33    64    1
67    33    65    1
@<TRIPOS>SUBSTRUCTURE
1   ZINC000095619100 1     RESIDUE    1   A     ZIN   1
