@<TRIPOS>MOLECULE
ZINC000001530568
52   53    0    0    0
SMALL
USER_CHARGES
NO_NAME
@<TRIPOS>ATOM
1 C1       -0.0187     1.5258     0.0104 C.3    1 <0>      -0.1900
2 C2        0.0021    -0.0041     0.0020 C.3    1 <0>       0.0200
3 C3        0.7421    -0.5109     1.2415 C.3    1 <0>      -0.1900
4 N4       -1.3761    -0.5125     0.0124 N.4    1 <0>      -0.5000
5 H5       -1.8225    -0.2564     0.8803 H      1 <0>       0.4300
6 H6       -1.8879    -0.1129    -0.7598 H      1 <0>       0.4300
7 C7       -1.3591    -1.9758    -0.1163 C.3    1 <0>      -0.0500
8 C8       -2.7945    -2.5054    -0.1054 C.3    1 <0>       0.0900
9 H9       -3.3047    -2.1538     0.7914 H      1 <0>       0.1300
10 O10      -3.4857    -2.0320    -1.2631 O.3    1 <0>      -0.5400
11 C11      -2.7738    -4.0352    -0.1139 C.3    1 <0>       0.0300
12 O12      -4.1082    -4.5304     0.0137 O.3    1 <0>      -0.3000
13 C13      -4.2671    -5.8800     0.0234 C.ar   1 <0>       0.1200
14 C14      -3.1609    -6.7107    -0.0816 C.ar   1 <0>      -0.2100
15 C15      -3.3251    -8.0823    -0.0710 C.ar   1 <0>      -0.0700
16 C16      -4.5906    -8.6274     0.0439 C.ar   1 <0>      -0.1100
17 C17      -4.7668   -10.1240     0.0547 C.3    1 <0>      -0.0800
18 C18      -4.6939   -10.6357     1.4948 C.3    1 <0>       0.0700
19 O19      -4.8610   -12.0548     1.5051 O.3    1 <0>      -0.3900
20 C20      -4.8090   -12.6367     2.8092 C.3    1 <0>       0.1000
21 C21      -4.9985   -14.1510     2.6999 C.3    1 <0>      -0.1600
22 C22      -3.8340   -15.0420     3.1369 C.3    1 <0>      -0.1800
23 C23      -5.0916   -14.9472     4.0031 C.3    1 <0>      -0.1700
24 C24      -5.6946    -7.8017     0.1492 C.ar   1 <0>      -0.0700
25 C25      -5.5352    -6.4295     0.1443 C.ar   1 <0>      -0.1400
26 H26       1.0039     1.9031     0.0027 H      1 <0>       0.1100
27 H27      -0.5459     1.8868    -0.8726 H      1 <0>       0.0800
28 H28      -0.5289     1.8773     0.9072 H      1 <0>       0.0800
29 H29       0.5123    -0.3556    -0.8948 H      1 <0>       0.1400
30 H30       0.2319    -0.1594     2.1383 H      1 <0>       0.0800
31 H31       0.7568    -1.6008     1.2356 H      1 <0>       0.0800
32 H32       1.7647    -0.1336     1.2338 H      1 <0>       0.1100
33 H33      -0.8769    -2.2525    -1.0538 H      1 <0>       0.1400
34 H34      -0.8062    -2.4075     0.7180 H      1 <0>       0.1500
35 H35      -3.0863    -2.3073    -2.0996 H      1 <0>       0.3900
36 H36      -2.3435    -4.3876    -1.0513 H      1 <0>       0.0800
37 H37      -2.1714    -4.3950     0.7203 H      1 <0>       0.0800
38 H38      -2.1723    -6.2854    -0.1720 H      1 <0>       0.1200
39 H39      -2.4643    -8.7294    -0.1527 H      1 <0>       0.1300
40 H40      -5.7366   -10.3788    -0.3727 H      1 <0>       0.0800
41 H41      -3.9764   -10.5872    -0.5359 H      1 <0>       0.0800
42 H42      -3.7241   -10.3809     1.9222 H      1 <0>       0.0500
43 H43      -5.4843   -10.1725     2.0854 H      1 <0>       0.0500
44 H44      -3.8416   -12.4235     3.2639 H      1 <0>       0.0500
45 H45      -5.6018   -12.2150     3.4271 H      1 <0>       0.0500
46 H46      -5.6037   -14.4896     1.8590 H      1 <0>       0.1100
47 H47      -3.6728   -15.9670     2.5833 H      1 <0>       0.1000
48 H48      -2.9329   -14.5494     3.5022 H      1 <0>       0.0900
49 H49      -5.0179   -14.3922     4.9384 H      1 <0>       0.1000
50 H50      -5.7577   -15.8098     4.0194 H      1 <0>       0.1000
51 H51      -6.6820    -8.2299     0.2391 H      1 <0>       0.1400
52 H52      -6.3979    -5.7849     0.2266 H      1 <0>       0.1300
@<TRIPOS>BOND
1    1    2 1
2    1   26 1
3    1   27 1
4    1   28 1
5    2    3 1
6    2    4 1
7    2   29 1
8    3   30 1
9    3   31 1
10    3   32 1
11    4    5 1
12    4    6 1
13    4    7 1
14    7    8 1
15    7   33 1
16    7   34 1
17    8    9 1
18    8   10 1
19    8   11 1
20   10   35 1
21   11   12 1
22   11   36 1
23   11   37 1
24   12   13 1
25   13   25 ar
26   13   14 ar
27   14   15 ar
28   14   38 1
29   15   16 ar
30   15   39 1
31   16   17 1
32   16   24 ar
33   17   18 1
34   17   40 1
35   17   41 1
36   18   19 1
37   18   42 1
38   18   43 1
39   19   20 1
40   20   21 1
41   20   44 1
42   20   45 1
43   21   23 1
44   21   22 1
45   21   46 1
46   22   23 1
47   22   47 1
48   22   48 1
49   23   49 1
50   23   50 1
51   24   25 ar
52   24   51 1
53   25   52 1
