@<TRIPOS>MOLECULE
ZINC000001532728
19   18    0    0    0
SMALL
USER_CHARGES
NO_NAME
@<TRIPOS>ATOM
1 C1        0.0898     1.4479    -0.0569 C.3    1 <0>      -0.0500
2 N2        0.0233    -0.0184     0.0024 N.4    1 <0>      -0.2500
3 C3        0.7575    -0.4945     1.1823 C.3    1 <0>      -0.0500
4 C4       -1.3804    -0.4415     0.0955 C.3    1 <0>      -0.0400
5 C5        0.6262    -0.5854    -1.2112 C.3    1 <0>      -0.0800
6 C6        2.0828    -0.2038    -1.2739 C.2    1 <0>       0.4900
7 O7        2.5479     0.5638    -0.4488 O.co2  1 <0>      -0.6700
8 O8        2.7960    -0.6627    -2.1499 O.co2  1 <0>      -0.6400
9 H9        1.1294     1.7677     0.0150 H      1 <0>       0.1600
10 H10      -0.3320     1.7929    -1.0009 H      1 <0>       0.1000
11 H11      -0.4786     1.8712     0.7712 H      1 <0>       0.1000
12 H12       0.2288    -0.1913     2.0860 H      1 <0>       0.1000
13 H13       0.8297    -1.5817     1.1511 H      1 <0>       0.1000
14 H14       1.7588    -0.0639     1.1854 H      1 <0>       0.1600
15 H15      -1.9252    -0.0882    -0.7800 H      1 <0>       0.1100
16 H16      -1.4297    -1.5295     0.1395 H      1 <0>       0.1100
17 H17      -1.8277    -0.0208     0.9960 H      1 <0>       0.1100
18 H18       0.5358    -1.6714    -1.1885 H      1 <0>       0.1200
19 H19       0.1105    -0.1961    -2.0891 H      1 <0>       0.1200
@<TRIPOS>BOND
1    1    2 1
2    1    9 1
3    1   10 1
4    1   11 1
5    2    3 1
6    2    4 1
7    2    5 1
8    3   12 1
9    3   13 1
10    3   14 1
11    4   15 1
12    4   16 1
13    4   17 1
14    5    6 1
15    5   18 1
16    5   19 1
17    6    7 ar
18    6    8 ar
