@<TRIPOS>MOLECULE
ZINC000000896569
25    26    1     0     0
SMALL
USER_CHARGES
@<TRIPOS>ATOM
1      N1     -0.0204    1.6518    0.0111 N.am     1 ZINC000000896569   -1.2400
2      S2      0.0021   -0.0041    0.0020 S.o2     1 ZINC000000896569    2.7000
3      O3      1.3604   -0.3860   -0.1664 O.2      1 ZINC000000896569   -0.9500
4      O4     -0.7920   -0.4222    1.1038 O.2      1 ZINC000000896569   -0.9400
5      C5     -0.8462   -0.5292   -1.4503 C.ar     1 ZINC000000896569   -0.7400
6      C6     -0.1646   -1.2078   -2.4440 C.ar     1 ZINC000000896569    0.1300
7      C7     -0.8307   -1.6240   -3.5779 C.ar     1 ZINC000000896569   -0.7400
8      C8     -2.1878   -1.3751   -3.7322 C.ar     1 ZINC000000896569    0.3500
9      C9     -2.8664   -0.6811   -2.7317 C.ar     1 ZINC000000896569   -0.2000
10     C10    -2.1978   -0.2686   -1.5970 C.ar     1 ZINC000000896569    0.1300
11     Cl11   -3.0522    0.5916   -0.3545 Cl       1 ZINC000000896569   -0.0300
12     N12    -2.9002   -1.8166   -4.8440 N.pl3    1 ZINC000000896569   -0.7500
13     C13    -2.2727   -2.1406   -6.1228 C.3      1 ZINC000000896569    0.3400
14     N14    -1.1360   -3.0506   -5.8758 N.am     1 ZINC000000896569   -1.1200
15     S15     0.0492   -2.4747   -4.8531 S.o2     1 ZINC000000896569    2.6900
16     O16     0.7744   -1.4911   -5.5783 O.2      1 ZINC000000896569   -0.9400
17     O17     0.6545   -3.6086   -4.2471 O.2      1 ZINC000000896569   -0.9400
18     H18     0.8130    2.1481    0.0058 H        1 ZINC000000896569    0.4300
19     H19    -0.8669    2.1253    0.0177 H        1 ZINC000000896569    0.4200
20     H20     0.8901   -1.4118   -2.3323 H        1 ZINC000000896569    0.1600
21     H21    -3.9194   -0.4688   -2.8432 H        1 ZINC000000896569    0.1500
22     H22    -3.8620   -1.9144   -4.7653 H        1 ZINC000000896569    0.4200
23     H23    -2.9984   -2.6300   -6.7725 H        1 ZINC000000896569    0.1300
24     H24    -1.9133   -1.2266   -6.5956 H        1 ZINC000000896569    0.1000
25     H25    -1.0818   -3.9290   -6.2836 H        1 ZINC000000896569    0.4300
@<TRIPOS>BOND
1     1     2     am
2     1     18    1
3     1     19    1
4     2     3     2
5     2     4     2
6     2     5     1
7     5     10    ar
8     5     6     ar
9     6     7     ar
10    6     20    1
11    7     15    1
12    7     8     ar
13    8     9     ar
14    8     12    1
15    9     10    ar
16    9     21    1
17    10    11    1
18    12    13    1
19    12    22    1
20    13    14    1
21    13    23    1
22    13    24    1
23    14    15    am
24    14    25    1
25    15    16    2
26    15    17    2
@<TRIPOS>SUBSTRUCTURE
1   ZINC000000896569 1     RESIDUE    1   A     ZIN   1
