@<TRIPOS>MOLECULE
ZINC000095619105
50    53    1     0     0
SMALL
USER_CHARGES
@<TRIPOS>ATOM
1      C1     -0.0187    1.5258    0.0104 C.3      1 ZINC000095619105   -0.1500
2      C2      0.0021   -0.0041    0.0020 C.3      1 ZINC000095619105   -0.1300
3      C3      0.7182   -0.4975   -1.2568 C.3      1 ZINC000095619105    0.1500
4      H4      1.7103   -0.0491   -1.3098 H        1 ZINC000095619105    0.1000
5      C5      0.8493   -2.0210   -1.2049 C.3      1 ZINC000095619105    0.0600
6      O6     -0.4420   -2.6041   -1.0184 O.3      1 ZINC000095619105   -0.5700
7      N7     -0.0549   -0.1139   -2.4405 N.am     1 ZINC000095619105   -0.7100
8      C8      0.5610    0.0279   -3.6309 C.2      1 ZINC000095619105    0.5300
9      O9      1.7554   -0.1622   -3.7221 O.2      1 ZINC000095619105   -0.5400
10     C10    -0.2343    0.4225   -4.8486 C.3      1 ZINC000095619105   -0.0700
11     H11    -0.7050    1.3913   -4.6815 H        1 ZINC000095619105    0.1200
12     C12    -1.2907   -0.6140   -5.1219 C.2      1 ZINC000095619105   -0.1300
13     C13    -1.6534   -0.9282   -6.3527 C.2      1 ZINC000095619105   -0.0500
14     C14    -2.6883   -1.9602   -6.5571 C.ar     1 ZINC000095619105    0.0000
15     C15    -3.3679   -1.8614   -7.7892 C.ar     1 ZINC000095619105   -0.1300
16     C16    -3.1330   -0.8460   -8.8091 C.2      1 ZINC000095619105   -0.1700
17     C17    -3.9781   -1.1390   -9.7918 C.2      1 ZINC000095619105    0.0600
18     N18    -4.7297   -2.2566   -9.4629 N.pl3    1 ZINC000095619105   -0.6000
19     C19    -4.3779   -2.7204   -8.2314 C.ar     1 ZINC000095619105    0.1100
20     C20    -4.7542   -3.7577   -7.3790 C.ar     1 ZINC000095619105   -0.1200
21     C21    -4.0941   -3.8580   -6.1597 C.ar     1 ZINC000095619105   -0.1000
22     C22    -3.0852   -2.9938   -5.7398 C.ar     1 ZINC000095619105   -0.1300
23     C23    -2.1034    0.2276   -8.5717 C.3      1 ZINC000095619105   -0.0200
24     C24    -1.0543   -0.2844   -7.5750 C.3      1 ZINC000095619105    0.1400
25     H25    -0.4820   -1.0589   -8.0857 H        1 ZINC000095619105    0.0400
26     N26    -0.1225    0.7883   -7.2516 N.3      1 ZINC000095619105   -0.5500
27     C27     0.7244    1.1160   -8.4063 C.3      1 ZINC000095619105    0.0300
28     C28     0.6925    0.5021   -6.0671 C.3      1 ZINC000095619105    0.0800
29     H29     1.0039    1.9031    0.0027 H        1 ZINC000095619105    0.0500
30     H30    -0.5459    1.8868   -0.8726 H        1 ZINC000095619105    0.0600
31     H31    -0.5289    1.8773    0.9072 H        1 ZINC000095619105    0.0600
32     H32     0.5293   -0.3651    0.8851 H        1 ZINC000095619105    0.0800
33     H33    -1.0205   -0.3814    0.0098 H        1 ZINC000095619105    0.0800
34     H34     1.2788   -2.3807   -2.1399 H        1 ZINC000095619105    0.0500
35     H35     1.4980   -2.3018   -0.3753 H        1 ZINC000095619105    0.0500
36     H36    -0.4349   -3.5701   -0.9761 H        1 ZINC000095619105    0.3800
37     H37    -1.0102    0.0381   -2.3676 H        1 ZINC000095619105    0.4000
38     H38    -1.7644   -1.1142   -4.2901 H        1 ZINC000095619105    0.1200
39     H39    -4.0668   -0.5856  -10.7149 H        1 ZINC000095619105    0.1700
40     H40    -5.4102   -2.6523  -10.0297 H        1 ZINC000095619105    0.4200
41     H41    -5.5295   -4.4567   -7.6556 H        1 ZINC000095619105    0.1300
42     H42    -4.3827   -4.6580   -5.4940 H        1 ZINC000095619105    0.1200
43     H43    -2.6159   -3.1350   -4.7774 H        1 ZINC000095619105    0.1200
44     H44    -1.6171    0.4798   -9.5140 H        1 ZINC000095619105    0.0800
45     H45    -2.5897    1.1141   -8.1644 H        1 ZINC000095619105    0.0800
46     H46     0.0968    1.4370   -9.2377 H        1 ZINC000095619105    0.0700
47     H47     1.4103    1.9193   -8.1375 H        1 ZINC000095619105    0.0700
48     H48     1.2944    0.2347   -8.7005 H        1 ZINC000095619105    0.0300
49     H49     1.4213    1.2996   -5.9224 H        1 ZINC000095619105    0.0900
50     H50     1.2074   -0.4496   -6.1979 H        1 ZINC000095619105    0.0500
@<TRIPOS>BOND
1     1     2     1
2     1     29    1
3     1     30    1
4     1     31    1
5     2     3     1
6     2     32    1
7     2     33    1
8     3     4     1
9     3     5     1
10    3     7     1
11    5     6     1
12    5     34    1
13    5     35    1
14    6     36    1
15    7     8     am
16    7     37    1
17    8     9     2
18    8     10    1
19    10    11    1
20    10    28    1
21    10    12    1
22    12    13    2
23    12    38    1
24    13    24    1
25    13    14    1
26    14    22    ar
27    14    15    ar
28    15    19    ar
29    15    16    1
30    16    17    2
31    16    23    1
32    17    18    1
33    17    39    1
34    18    19    1
35    18    40    1
36    19    20    ar
37    20    21    ar
38    20    41    1
39    21    22    ar
40    21    42    1
41    22    43    1
42    23    24    1
43    23    44    1
44    23    45    1
45    24    25    1
46    24    26    1
47    26    27    1
48    26    28    1
49    27    46    1
50    27    47    1
51    27    48    1
52    28    49    1
53    28    50    1
@<TRIPOS>SUBSTRUCTURE
1   ZINC000095619105 1     RESIDUE    1   A     ZIN   1
