@<TRIPOS>MOLECULE
ZINC000012503291
48    52    1     0     0
SMALL
USER_CHARGES
@<TRIPOS>ATOM
1      C1     -0.0180    1.4726    0.0101 C.3      1 ZINC000012503291   -0.0400
2      N2      0.0021   -0.0041    0.0020 N.4      1 ZINC000012503291   -0.2800
3      C3     -1.3675   -0.5127   -0.0858 C.3      1 ZINC000012503291   -0.0400
4      C4      0.8604   -0.4882   -1.1063 C.3      1 ZINC000012503291    0.0400
5      H5      0.6328    0.0405   -2.0435 H        1 ZINC000012503291    0.1700
6      C6      0.7107   -1.9953   -1.2578 C.3      1 ZINC000012503291   -0.1400
7      C7      0.8198   -2.7764    0.0348 C.3      1 ZINC000012503291    0.0900
8      O8      2.1180   -3.4358    0.1110 O.3      1 ZINC000012503291   -0.3200
9      C9      2.1758   -4.5908    0.7926 C.2      1 ZINC000012503291    0.4500
10     O10     1.1791   -5.0382    1.3086 O.2      1 ZINC000012503291   -0.4800
11     C11     3.4837   -5.3294    0.9141 C.3      1 ZINC000012503291    0.3200
12     O12     4.5555   -4.3886    1.0044 O.3      1 ZINC000012503291   -0.5100
13     C13     3.4628   -6.1875    2.1528 C.2      1 ZINC000012503291   -0.2400
14     C14     3.8599   -5.7976    3.3651 C.2      1 ZINC000012503291   -0.1000
15     C15     3.7481   -6.7605    4.3532 C.2      1 ZINC000012503291   -0.1400
16     C16     3.2603   -7.9324    3.9433 C.2      1 ZINC000012503291   -0.1900
17     S17     2.9041   -7.8537    2.2228 S.3      1 ZINC000012503291    0.1600
18     C18     3.6822   -6.2022   -0.2983 C.2      1 ZINC000012503291   -0.2300
19     C19     4.2981   -5.8298   -1.4213 C.2      1 ZINC000012503291   -0.0700
20     C20     4.3613   -6.8042   -2.4025 C.2      1 ZINC000012503291   -0.1500
21     C21     3.7968   -7.9679   -2.0762 C.2      1 ZINC000012503291   -0.1900
22     S22     3.1441   -7.8702   -0.4459 S.3      1 ZINC000012503291    0.1400
23     C23     0.5513   -2.0116    1.3137 C.3      1 ZINC000012503291   -0.1600
24     C24     0.7181   -0.5029    1.2011 C.3      1 ZINC000012503291    0.0400
25     H25     0.3766    0.0141    2.1099 H        1 ZINC000012503291    0.1700
26     C26     2.2033   -0.1802    0.9110 C.3      1 ZINC000012503291   -0.0400
27     H27     2.6945    0.5676    1.5334 H        1 ZINC000012503291    0.1800
28     O28     2.9793   -1.1255    0.1783 O.3      1 ZINC000012503291   -0.2400
29     C29     2.2984   -0.1700   -0.6315 C.3      1 ZINC000012503291   -0.0300
30     H30     2.8612    0.5861   -1.1787 H        1 ZINC000012503291    0.1800
31     H31     1.0046    1.8499    0.0024 H        1 ZINC000012503291    0.1200
32     H32    -0.5451    1.8337   -0.8729 H        1 ZINC000012503291    0.1300
33     H33    -0.5281    1.8241    0.9069 H        1 ZINC000012503291    0.1300
34     H34    -1.8358   -0.1399   -0.9967 H        1 ZINC000012503291    0.1300
35     H35    -1.3498   -1.6023   -0.1060 H        1 ZINC000012503291    0.1200
36     H36    -1.9369   -0.1745    0.7800 H        1 ZINC000012503291    0.1300
37     H37    -0.2374   -2.2328   -1.7586 H        1 ZINC000012503291    0.1100
38     H38     1.5007   -2.3527   -1.9474 H        1 ZINC000012503291    0.1300
39     H39     0.0707   -3.6001   -0.0169 H        1 ZINC000012503291    0.1000
40     H40     4.4928   -3.7926    1.7633 H        1 ZINC000012503291    0.3900
41     H41     4.2401   -4.8058    3.5608 H        1 ZINC000012503291    0.1400
42     H42     4.0346   -6.5770    5.3782 H        1 ZINC000012503291    0.1500
43     H43     3.1045   -8.7963    4.5725 H        1 ZINC000012503291    0.1700
44     H44     4.7154   -4.8427   -1.5551 H        1 ZINC000012503291    0.1500
45     H45     4.8317   -6.6349   -3.3599 H        1 ZINC000012503291    0.1500
46     H46     3.7509   -8.8381   -2.7142 H        1 ZINC000012503291    0.1700
47     H47    -0.4516   -2.2542    1.6900 H        1 ZINC000012503291    0.1100
48     H48     1.2497   -2.3788    2.0913 H        1 ZINC000012503291    0.1200
@<TRIPOS>BOND
1     1     2     1
2     1     31    1
3     1     32    1
4     1     33    1
5     2     24    1
6     2     3     1
7     2     4     1
8     3     34    1
9     3     35    1
10    3     36    1
11    4     5     1
12    4     29    1
13    4     6     1
14    6     7     1
15    6     37    1
16    6     38    1
17    7     8     1
18    7     23    1
19    7     39    1
20    8     9     1
21    9     10    2
22    9     11    1
23    11    12    1
24    11    13    1
25    11    18    1
26    12    40    1
27    13    17    1
28    13    14    2
29    14    15    1
30    14    41    1
31    15    16    2
32    15    42    1
33    16    17    1
34    16    43    1
35    18    22    1
36    18    19    2
37    19    20    1
38    19    44    1
39    20    21    2
40    20    45    1
41    21    22    1
42    21    46    1
43    23    24    1
44    23    47    1
45    23    48    1
46    24    25    1
47    24    26    1
48    26    27    1
49    26    29    1
50    26    28    1
51    28    29    1
52    29    30    1
@<TRIPOS>SUBSTRUCTURE
1   ZINC000012503291 1     RESIDUE    1   A     ZIN   1
