@<TRIPOS>MOLECULE
ZINC000000057147
32    33    1     0     0
SMALL
USER_CHARGES
@<TRIPOS>ATOM
1      C1     -0.0178    1.4608    0.0101 C.3      1 ZINC000000057147    0.0900
2      N2      0.0021   -0.0041    0.0020 N.am     1 ZINC000000057147   -0.5100
3      C3     -1.1889   -0.7120    0.0039 C.2      1 ZINC000000057147    0.3200
4      C4     -1.1437   -2.1005   -0.0039 C.2      1 ZINC000000057147   -0.1600
5      C5      0.1107   -2.7476   -0.0134 C.2      1 ZINC000000057147    0.6000
6      O6      0.1765   -3.9638   -0.0207 O.2      1 ZINC000000057147   -0.5200
7      N7      1.2361   -2.0032   -0.0148 N.am     1 ZINC000000057147   -0.5500
8      C8      2.5413   -2.6685   -0.0246 C.3      1 ZINC000000057147    0.0800
9      C9      1.1776   -0.6603   -0.0127 C.2      1 ZINC000000057147    0.7100
10     O10     2.2127   -0.0220   -0.0144 O.2      1 ZINC000000057147   -0.5300
11     N11    -2.4557   -2.5297    0.0001 N.pl3    1 ZINC000000057147   -0.4100
12     C12    -2.9179   -3.9199   -0.0046 C.3      1 ZINC000000057147    0.0700
13     C13    -2.9529   -4.4505    1.4301 C.3      1 ZINC000000057147    0.0900
14     H14    -1.9733   -4.3197    1.8898 H        1 ZINC000000057147    0.1200
15     O15    -3.9317   -3.7292    2.1810 O.3      1 ZINC000000057147   -0.5400
16     C16    -3.3150   -5.9369    1.4154 C.3      1 ZINC000000057147    0.0500
17     O17    -3.2341   -6.4600    2.7427 O.3      1 ZINC000000057147   -0.5600
18     C18    -3.2306   -1.4275    0.0098 C.2      1 ZINC000000057147    0.2800
19     N19    -2.4766   -0.3579    0.0120 N.2      1 ZINC000000057147   -0.5000
20     H20     1.0048    1.8381    0.0023 H        1 ZINC000000057147    0.1000
21     H21    -0.5450    1.8219   -0.8730 H        1 ZINC000000057147    0.0800
22     H22    -0.5280    1.8123    0.9069 H        1 ZINC000000057147    0.0800
23     H23     2.8601   -2.8279   -1.0547 H        1 ZINC000000057147    0.0800
24     H24     3.2716   -2.0434    0.4891 H        1 ZINC000000057147    0.1000
25     H25     2.4632   -3.6292    0.4844 H        1 ZINC000000057147    0.1000
26     H26    -3.9183   -3.9688   -0.4345 H        1 ZINC000000057147    0.1100
27     H27    -2.2364   -4.5274   -0.6001 H        1 ZINC000000057147    0.1200
28     H28    -4.8292   -3.8008    1.8283 H        1 ZINC000000057147    0.3700
29     H29    -4.3300   -6.0599    1.0376 H        1 ZINC000000057147    0.0500
30     H30    -2.6196   -6.4739    0.7702 H        1 ZINC000000057147    0.0600
31     H31    -3.4512   -7.4000    2.8090 H        1 ZINC000000057147    0.3800
32     H32    -4.3106   -1.4268    0.0144 H        1 ZINC000000057147    0.2300
@<TRIPOS>BOND
1     1     2     1
2     1     20    1
3     1     21    1
4     1     22    1
5     2     9     am
6     2     3     1
7     3     19    1
8     3     4     2
9     4     5     1
10    4     11    1
11    5     6     2
12    5     7     am
13    7     8     1
14    7     9     am
15    8     23    1
16    8     24    1
17    8     25    1
18    9     10    2
19    11    12    1
20    11    18    1
21    12    13    1
22    12    26    1
23    12    27    1
24    13    14    1
25    13    15    1
26    13    16    1
27    15    28    1
28    16    17    1
29    16    29    1
30    16    30    1
31    17    31    1
32    18    19    2
33    18    32    1
@<TRIPOS>SUBSTRUCTURE
1   ZINC000000057147 1     RESIDUE    1   A     ZIN   1
