@<TRIPOS>MOLECULE
ZINC000068202099
61    64    1     0     0
SMALL
USER_CHARGES
@<TRIPOS>ATOM
1      C1     -0.5244    1.5111    0.0254 C.3      1 ZINC000068202099   -0.1300
2      C2     -0.3177    0.0183    0.0209 C.ar     1 ZINC000068202099    0.0000
3      C3     -0.2457   -0.6745   -1.1862 C.ar     1 ZINC000068202099   -0.1400
4      C4     -0.3714    0.0531   -2.4670 C.2      1 ZINC000068202099    0.5600
5      O5     -0.4261    1.2675   -2.4733 O.2      1 ZINC000068202099   -0.5100
6      N6     -0.4255   -0.6300   -3.6276 N.am     1 ZINC000068202099   -0.6600
7      C7     -0.4415    0.0604   -4.8467 C.ar     1 ZINC000068202099    0.0700
8      C8      0.2349    1.2719   -4.9804 C.ar     1 ZINC000068202099   -0.0500
9      C9      0.1925    1.9187   -6.2020 C.ar     1 ZINC000068202099   -0.1600
10     C10    -0.5186    1.3431   -7.2495 C.ar     1 ZINC000068202099    0.3000
11     N11    -0.5675    1.9861   -8.4833 N.3      1 ZINC000068202099   -0.4800
12     C12     0.7854    2.2301   -9.0043 C.3      1 ZINC000068202099    0.0300
13     C13     0.6867    2.9899  -10.3298 C.3      1 ZINC000068202099    0.0900
14     H14     0.2306    3.9647  -10.1574 H        1 ZINC000068202099    0.0700
15     C15     2.0872    3.1776  -10.9166 C.3      1 ZINC000068202099   -0.1500
16     O16    -0.1186    2.2408  -11.2440 O.3      1 ZINC000068202099   -0.3800
17     C17    -1.4431    1.9854  -10.7688 C.3      1 ZINC000068202099    0.0900
18     H18    -1.9611    2.9311  -10.6092 H        1 ZINC000068202099    0.0700
19     C19    -2.2051    1.1535  -11.8022 C.3      1 ZINC000068202099   -0.1400
20     C20    -1.3659    1.2156   -9.4477 C.3      1 ZINC000068202099    0.0400
21     N21    -1.1491    0.1906   -7.0867 N.ar     1 ZINC000068202099   -0.5000
22     C22    -1.1258   -0.4559   -5.9368 C.ar     1 ZINC000068202099    0.1100
23     C23    -0.0540   -2.0580   -1.1829 C.ar     1 ZINC000068202099   -0.0800
24     C24     0.0639   -2.7375    0.0127 C.ar     1 ZINC000068202099   -0.1300
25     C25    -0.0072   -2.0550    1.2118 C.ar     1 ZINC000068202099   -0.0700
26     C26    -0.1922   -0.6730    1.2216 C.ar     1 ZINC000068202099   -0.0600
27     C27    -0.2677    0.0573    2.5110 C.ar     1 ZINC000068202099   -0.0600
28     C28     0.5122    1.1940    2.7163 C.ar     1 ZINC000068202099   -0.0600
29     C29     0.4395    1.8711    3.9155 C.ar     1 ZINC000068202099   -0.1200
30     C30    -0.4095    1.4215    4.9177 C.ar     1 ZINC000068202099    0.1100
31     O31    -0.4790    2.0906    6.0982 O.3      1 ZINC000068202099   -0.3100
32     C32    -1.3732    1.5731    7.0855 C.3      1 ZINC000068202099    0.6000
33     F33    -0.9979    0.2665    7.4156 F        1 ZINC000068202099   -0.1600
34     F34    -1.3202    2.3766    8.2296 F        1 ZINC000068202099   -0.1300
35     F35    -2.6769    1.5698    6.5780 F        1 ZINC000068202099   -0.1600
36     C36    -1.1879    0.2898    4.7159 C.ar     1 ZINC000068202099   -0.1900
37     C37    -1.1230   -0.3886    3.5170 C.ar     1 ZINC000068202099   -0.0600
38     H38     0.4346    2.0111   -0.1097 H        1 ZINC000068202099    0.0800
39     H39    -1.1960    1.7873   -0.7875 H        1 ZINC000068202099    0.1000
40     H40    -0.9615    1.8145    0.9767 H        1 ZINC000068202099    0.0700
41     H41    -0.4533   -1.5995   -3.6189 H        1 ZINC000068202099    0.4100
42     H42     0.7790    1.6956   -4.1492 H        1 ZINC000068202099    0.1500
43     H43     0.7050    2.8592   -6.3407 H        1 ZINC000068202099    0.1400
44     H44     1.3505    2.8238   -8.2857 H        1 ZINC000068202099    0.0900
45     H45     1.2899    1.2778   -9.1673 H        1 ZINC000068202099    0.0600
46     H46     2.5421    2.2024  -11.0901 H        1 ZINC000068202099    0.0600
47     H47     2.0162    3.7185  -11.8602 H        1 ZINC000068202099    0.0700
48     H48     2.7009    3.7456  -10.2174 H        1 ZINC000068202099    0.0700
49     H49    -1.6875    0.2074  -11.9602 H        1 ZINC000068202099    0.0600
50     H50    -3.2145    0.9593  -11.4395 H        1 ZINC000068202099    0.0700
51     H51    -2.2564    1.7012  -12.7432 H        1 ZINC000068202099    0.0700
52     H52    -0.8958    0.2470   -9.6178 H        1 ZINC000068202099    0.0600
53     H53    -2.3712    1.0686   -9.0528 H        1 ZINC000068202099    0.1000
54     H54    -1.6519   -1.3943   -5.8412 H        1 ZINC000068202099    0.1600
55     H55     0.0018   -2.5969   -2.1171 H        1 ZINC000068202099    0.1300
56     H56     0.2121   -3.8073    0.0108 H        1 ZINC000068202099    0.1300
57     H57     0.0854   -2.5927    2.1438 H        1 ZINC000068202099    0.1300
58     H58     1.1730    1.5441    1.9371 H        1 ZINC000068202099    0.1400
59     H59     1.0439    2.7518    4.0753 H        1 ZINC000068202099    0.1400
60     H60    -1.8477   -0.0575    5.4972 H        1 ZINC000068202099    0.1400
61     H61    -1.7291   -1.2687    3.3604 H        1 ZINC000068202099    0.1400
@<TRIPOS>BOND
1     1     2     1
2     1     38    1
3     1     39    1
4     1     40    1
5     2     26    ar
6     2     3     ar
7     3     4     1
8     3     23    ar
9     4     5     2
10    4     6     am
11    6     7     1
12    6     41    1
13    7     22    ar
14    7     8     ar
15    8     9     ar
16    8     42    1
17    9     10    ar
18    9     43    1
19    10    11    1
20    10    21    ar
21    11    20    1
22    11    12    1
23    12    13    1
24    12    44    1
25    12    45    1
26    13    14    1
27    13    15    1
28    13    16    1
29    15    46    1
30    15    47    1
31    15    48    1
32    16    17    1
33    17    18    1
34    17    19    1
35    17    20    1
36    19    49    1
37    19    50    1
38    19    51    1
39    20    52    1
40    20    53    1
41    21    22    ar
42    22    54    1
43    23    24    ar
44    23    55    1
45    24    25    ar
46    24    56    1
47    25    26    ar
48    25    57    1
49    26    27    1
50    27    37    ar
51    27    28    ar
52    28    29    ar
53    28    58    1
54    29    30    ar
55    29    59    1
56    30    31    1
57    30    36    ar
58    31    32    1
59    32    33    1
60    32    34    1
61    32    35    1
62    36    37    ar
63    36    60    1
64    37    61    1
@<TRIPOS>SUBSTRUCTURE
1   ZINC000068202099 1     RESIDUE    1   A     ZIN   1
