@<TRIPOS>MOLECULE
ZINC000000606383
43    46    1     0     0
SMALL
USER_CHARGES
@<TRIPOS>ATOM
1      Cl1     0.0021   -0.0041    0.0020 Cl       1 ZINC000000606383   -0.0300
2      C2     -0.0215    1.7317    0.0116 C.ar     1 ZINC000000606383   -0.0100
3      C3     -1.2286    2.4072    0.0325 C.ar     1 ZINC000000606383   -0.1000
4      C4     -1.2475    3.7894    0.0396 C.ar     1 ZINC000000606383   -0.0600
5      C5     -0.0607    4.4974    0.0262 C.ar     1 ZINC000000606383   -0.1000
6      C6     -0.0822    6.0042    0.0345 C.3      1 ZINC000000606383    0.1200
7      H7      0.7628    6.3764    0.6138 H        1 ZINC000000606383    0.1000
8      C8      0.0156    6.5235   -1.4013 C.3      1 ZINC000000606383    0.0700
9      N9      0.1150    7.9851   -1.3863 N.pl3    1 ZINC000000606383   -0.4100
10     C10    -0.9284    8.8705   -1.4196 C.2      1 ZINC000000606383    0.0300
11     C11    -0.3924   10.1055   -1.3887 C.2      1 ZINC000000606383    0.0000
12     N12     0.9418    9.9777   -1.3380 N.pl3    1 ZINC000000606383   -0.4700
13     H13     1.5754   10.7116   -1.3074 H        1 ZINC000000606383    0.4700
14     C14     1.2528    8.7103   -1.3311 C.cat    1 ZINC000000606383    0.2800
15     O15    -1.3016    6.4600    0.6239 O.3      1 ZINC000000606383   -0.3600
16     C16    -1.1892    7.7177    1.2929 C.3      1 ZINC000000606383    0.1200
17     C17    -2.5266    8.0991    1.8733 C.2      1 ZINC000000606383   -0.1100
18     C18    -3.5961    7.3381    1.7509 C.2      1 ZINC000000606383   -0.1600
19     S19    -4.9882    8.0604    2.5341 S.3      1 ZINC000000606383    0.1500
20     C20    -4.0571    9.4618    3.0473 C.ar     1 ZINC000000606383   -0.1400
21     C21    -4.4415   10.5921    3.7767 C.ar     1 ZINC000000606383    0.0000
22     Cl22   -6.0818   10.7547    4.3214 Cl       1 ZINC000000606383   -0.0500
23     C23    -3.5223   11.5752    4.0637 C.ar     1 ZINC000000606383   -0.0900
24     C24    -2.2093   11.4504    3.6312 C.ar     1 ZINC000000606383   -0.1000
25     C25    -1.8148   10.3586    2.9203 C.ar     1 ZINC000000606383   -0.0900
26     C26    -2.7342    9.3315    2.6163 C.ar     1 ZINC000000606383   -0.0600
27     C27     1.1474    3.8229    0.0058 C.ar     1 ZINC000000606383   -0.0100
28     Cl28    2.6382    4.7123   -0.0109 Cl       1 ZINC000000606383   -0.0500
29     C29     1.1671    2.4399    0.0040 C.ar     1 ZINC000000606383   -0.1000
30     H30    -2.1564    1.8545    0.0429 H        1 ZINC000000606383    0.1500
31     H31    -2.1901    4.3163    0.0552 H        1 ZINC000000606383    0.1500
32     H32     0.9006    6.1041   -1.8799 H        1 ZINC000000606383    0.1300
33     H33    -0.8736    6.2255   -1.9568 H        1 ZINC000000606383    0.1400
34     H34    -1.9794    8.6256   -1.4627 H        1 ZINC000000606383    0.2200
35     H35    -0.9408   11.0359   -1.4024 H        1 ZINC000000606383    0.2300
36     H36     2.2544    8.3082   -1.2943 H        1 ZINC000000606383    0.2600
37     H37    -0.4546    7.6387    2.0942 H        1 ZINC000000606383    0.0700
38     H38    -0.8709    8.4802    0.5820 H        1 ZINC000000606383    0.0600
39     H39    -3.6126    6.3903    1.2335 H        1 ZINC000000606383    0.1800
40     H40    -3.8234   12.4462    4.6267 H        1 ZINC000000606383    0.1500
41     H41    -1.4943   12.2266    3.8605 H        1 ZINC000000606383    0.1400
42     H42    -0.7898   10.2756    2.5902 H        1 ZINC000000606383    0.1200
43     H43     2.1097    1.9130   -0.0120 H        1 ZINC000000606383    0.1500
@<TRIPOS>BOND
1     1     2     1
2     2     29    ar
3     2     3     ar
4     3     4     ar
5     3     30    1
6     4     5     ar
7     4     31    1
8     5     6     1
9     5     27    ar
10    6     7     1
11    6     8     1
12    6     15    1
13    8     9     1
14    8     32    1
15    8     33    1
16    9     14    ar
17    9     10    1
18    10    11    2
19    10    34    1
20    11    12    1
21    11    35    1
22    12    13    1
23    12    14    ar
24    14    36    1
25    15    16    1
26    16    17    1
27    16    37    1
28    16    38    1
29    17    26    1
30    17    18    2
31    18    19    1
32    18    39    1
33    19    20    1
34    20    26    ar
35    20    21    ar
36    21    22    1
37    21    23    ar
38    23    24    ar
39    23    40    1
40    24    25    ar
41    24    41    1
42    25    26    ar
43    25    42    1
44    27    28    1
45    27    29    ar
46    29    43    1
@<TRIPOS>SUBSTRUCTURE
1   ZINC000000606383 1     RESIDUE    1   A     ZIN   1
