@<TRIPOS>MOLECULE
ZINC000004629876
73   75    0    0    0
SMALL
USER_CHARGES
NO_NAME
@<TRIPOS>ATOM
1 C1       -0.0160     1.3287     0.0093 C.2    1 <0>      -0.1800
2 C2        0.0021    -0.0041     0.0020 C.2    1 <0>      -0.0900
3 C3       -1.2778    -0.8160     0.0034 C.3    1 <0>      -0.0800
4 C4       -1.1451    -1.9243     1.0529 C.3    1 <0>      -0.1100
5 C5        0.0753    -2.7908     0.7399 C.3    1 <0>       0.1100
6 H6        0.0097    -3.1520    -0.2865 H      1 <0>       0.0600
7 O7        0.1089    -3.9049     1.6342 O.3    1 <0>      -0.5700
8 C8        1.3550    -1.9655     0.9085 C.3    1 <0>      -0.1100
9 C9        1.2709    -0.7615    -0.0142 C.2    1 <0>      -0.0900
10 C10       2.3048    -0.4008    -0.8021 C.2    1 <0>      -0.1100
11 C11       2.1853     0.7667    -1.6784 C.2    1 <0>      -0.1500
12 C12       3.2069     1.1231    -2.4569 C.2    1 <0>      -0.0800
13 C13       4.5193     0.3527    -2.4834 C.3    1 <0>      -0.0900
14 C14       4.9242     0.0243    -3.9191 C.3    1 <0>      -0.1200
15 C15       4.8399     1.2588    -4.8324 C.3    1 <0>      -0.1100
16 C16       3.4135     1.7556    -4.7966 C.3    1 <0>      -0.0500
17 C17       2.4635     0.5837    -5.0511 C.3    1 <0>      -0.1500
18 C18       3.1429     2.3081    -3.3741 C.3    1 <0>      -0.0600
19 H19       3.8895     3.0524    -3.0973 H      1 <0>       0.0800
20 C20       1.7715     2.9605    -3.5630 C.3    1 <0>      -0.1200
21 C21       1.9164     3.6723    -4.9377 C.3    1 <0>      -0.1200
22 C22       3.0309     2.9176    -5.7001 C.3    1 <0>      -0.0700
23 H23       3.8894     3.5700    -5.8591 H      1 <0>       0.0700
24 C24       2.5022     2.4004    -7.0394 C.3    1 <0>      -0.0500
25 H25       1.6524     1.7407    -6.8643 H      1 <0>       0.0800
26 C26       3.6083     1.6271    -7.7600 C.3    1 <0>      -0.1500
27 C27       2.0668     3.5650    -7.8910 C.2    1 <0>      -0.1500
28 C28       0.8236     3.6528    -8.2945 C.2    1 <0>      -0.1500
29 C29       0.3882     4.8174    -9.1461 C.3    1 <0>      -0.0600
30 H30       1.2379     5.4771    -9.3213 H      1 <0>       0.0700
31 C31      -0.7180     5.5907    -8.4255 C.3    1 <0>      -0.1500
32 C32      -0.1405     4.3002   -10.4855 C.3    1 <0>      -0.0900
33 C33      -0.5826     5.4826   -11.3501 C.3    1 <0>      -0.1500
34 C34       0.9656     3.5268   -11.2061 C.3    1 <0>      -0.1500
35 H35       0.9119     1.8814     0.0035 H      1 <0>       0.1100
36 H36      -0.9585     1.8559     0.0167 H      1 <0>       0.1000
37 H37      -2.1208    -0.1721     0.2540 H      1 <0>       0.0800
38 H38      -1.4329    -1.2586    -0.9805 H      1 <0>       0.0800
39 H39      -1.0282    -1.4767     2.0398 H      1 <0>       0.0700
40 H40      -2.0419    -2.5437     1.0411 H      1 <0>       0.0700
41 H41       0.8583    -4.4996     1.4937 H      1 <0>       0.3800
42 H42       1.4443    -1.6337     1.9429 H      1 <0>       0.0800
43 H43       2.2206    -2.5713     0.6406 H      1 <0>       0.0700
44 H44       3.2207    -0.9730    -0.7867 H      1 <0>       0.1200
45 H45       1.2694     1.3389    -1.6938 H      1 <0>       0.1300
46 H46       5.2993     0.9565    -2.0195 H      1 <0>       0.0700
47 H47       4.4027    -0.5745    -1.9223 H      1 <0>       0.0700
48 H48       5.9476    -0.3508    -3.9225 H      1 <0>       0.0600
49 H49       4.2622    -0.7501    -4.3066 H      1 <0>       0.0700
50 H50       5.5116     2.0358    -4.4672 H      1 <0>       0.0600
51 H51       5.1104     0.9839    -5.8519 H      1 <0>       0.0700
52 H52       2.6144    -0.1790    -4.2871 H      1 <0>       0.0600
53 H53       1.4329     0.9366    -5.0135 H      1 <0>       0.0500
54 H54       2.6663     0.1584    -6.0340 H      1 <0>       0.0600
55 H55       0.9863     2.2053    -3.5998 H      1 <0>       0.0700
56 H56       1.5759     3.6843    -2.7718 H      1 <0>       0.0600
57 H57       0.9783     3.6145    -5.4899 H      1 <0>       0.0700
58 H58       2.2017     4.7141    -4.7916 H      1 <0>       0.0600
59 H59       3.9232     0.7847    -7.1441 H      1 <0>       0.0700
60 H60       3.2316     1.2586    -8.7142 H      1 <0>       0.0500
61 H61       4.4581     2.2869    -7.9352 H      1 <0>       0.0500
62 H62       2.7797     4.3273    -8.1687 H      1 <0>       0.1000
63 H63       0.1106     2.8905    -8.0168 H      1 <0>       0.1000
64 H64      -0.3413     5.9592    -7.4713 H      1 <0>       0.0500
65 H65      -1.0329     6.4331    -9.0415 H      1 <0>       0.0600
66 H66      -1.5677     4.9310    -8.2504 H      1 <0>       0.0500
67 H67      -0.9903     3.6404   -10.3103 H      1 <0>       0.0700
68 H68      -0.9592     5.1141   -12.3043 H      1 <0>       0.0500
69 H69      -1.3706     6.0335   -10.8367 H      1 <0>       0.0600
70 H70       0.2672     6.1423   -11.5253 H      1 <0>       0.0500
71 H71       1.2805     2.6845   -10.5901 H      1 <0>       0.0600
72 H72       0.5889     3.1584   -12.1603 H      1 <0>       0.0500
73 H73       1.8154     4.1866   -11.3813 H      1 <0>       0.0500
@<TRIPOS>BOND
1    1    2 2
2    1   35 1
3    1   36 1
4    2    9 1
5    2    3 1
6    3    4 1
7    3   37 1
8    3   38 1
9    4    5 1
10    4   39 1
11    4   40 1
12    5    6 1
13    5    7 1
14    5    8 1
15    7   41 1
16    8    9 1
17    8   42 1
18    8   43 1
19    9   10 2
20   10   11 1
21   10   44 1
22   11   12 2
23   11   45 1
24   12   18 1
25   12   13 1
26   13   14 1
27   13   46 1
28   13   47 1
29   14   15 1
30   14   48 1
31   14   49 1
32   15   16 1
33   15   50 1
34   15   51 1
35   16   22 1
36   16   17 1
37   16   18 1
38   17   52 1
39   17   53 1
40   17   54 1
41   18   19 1
42   18   20 1
43   20   21 1
44   20   55 1
45   20   56 1
46   21   22 1
47   21   57 1
48   21   58 1
49   22   23 1
50   22   24 1
51   24   25 1
52   24   26 1
53   24   27 1
54   26   59 1
55   26   60 1
56   26   61 1
57   27   28 2
58   27   62 1
59   28   29 1
60   28   63 1
61   29   30 1
62   29   31 1
63   29   32 1
64   31   64 1
65   31   65 1
66   31   66 1
67   32   33 1
68   32   34 1
69   32   67 1
70   33   68 1
71   33   69 1
72   33   70 1
73   34   71 1
74   34   72 1
75   34   73 1
