@<TRIPOS>MOLECULE
ZINC000000508068
39   40    0    0    0
SMALL
USER_CHARGES
NO_NAME
@<TRIPOS>ATOM
1 C1        0.5141     0.9797     0.5625 C.3    1 <0>      -0.0500
2 N2        0.3184    -0.4725     0.4589 N.4    1 <0>      -0.3900
3 H3        0.8274    -0.8245    -0.3381 H      1 <0>       0.4300
4 C4        0.8122    -1.1215     1.6808 C.3    1 <0>      -0.0500
5 C5       -1.1120    -0.7633     0.2938 C.3    1 <0>      -0.0100
6 C6       -1.3040    -2.2633     0.0612 C.3    1 <0>      -0.1400
7 C7       -2.7938    -2.5661    -0.1108 C.3    1 <0>       0.0100
8 H8       -3.2005    -1.9468    -0.9102 H      1 <0>       0.1100
9 C9       -3.5192    -2.2660     1.1756 C.ar   1 <0>      -0.0900
10 C10      -3.1193    -2.8717     2.3521 C.ar   1 <0>      -0.1200
11 C11      -3.7847    -2.5964     3.5321 C.ar   1 <0>      -0.1200
12 C12      -4.8497    -1.7152     3.5357 C.ar   1 <0>      -0.1100
13 C13      -5.2491    -1.1089     2.3593 C.ar   1 <0>      -0.1100
14 C14      -4.5809    -1.3808     1.1801 C.ar   1 <0>      -0.1100
15 C15      -2.9735    -4.0207    -0.4613 C.ar   1 <0>       0.1300
16 C16      -2.1315    -4.9658     0.0930 C.ar   1 <0>      -0.1700
17 C17      -2.3056    -6.3017    -0.2356 C.ar   1 <0>      -0.0700
18 C18      -3.3246    -6.6379    -1.1133 C.ar   1 <0>      -0.1700
19 C19      -4.1276    -5.6374    -1.6280 C.ar   1 <0>       0.1100
20 N20      -3.9361    -4.3776    -1.2892 N.ar   1 <0>      -0.4800
21 H21       1.5755     1.1955     0.6850 H      1 <0>       0.1200
22 H22       0.1478     1.4613    -0.3442 H      1 <0>       0.1200
23 H23      -0.0357     1.3599     1.4234 H      1 <0>       0.1200
24 H24       0.6669    -2.1990     1.6039 H      1 <0>       0.1200
25 H25       1.8735    -0.9057     1.8033 H      1 <0>       0.1300
26 H26       0.2623    -0.7413     2.5417 H      1 <0>       0.1200
27 H27      -1.6500    -0.4632     1.1930 H      1 <0>       0.1300
28 H28      -1.4987    -0.2105    -0.5624 H      1 <0>       0.1300
29 H29      -0.7660    -2.5633    -0.8380 H      1 <0>       0.1000
30 H30      -0.9173    -2.8161     0.9174 H      1 <0>       0.0900
31 H31      -2.2872    -3.5602     2.3493 H      1 <0>       0.1200
32 H32      -3.4727    -3.0701     4.4512 H      1 <0>       0.1300
33 H33      -5.3700    -1.5007     4.4575 H      1 <0>       0.1300
34 H34      -6.0814    -0.4206     2.3621 H      1 <0>       0.1300
35 H35      -4.8929    -0.9071     0.2611 H      1 <0>       0.1300
36 H36      -1.3475    -4.6678     0.7734 H      1 <0>       0.1300
37 H37      -1.6624    -7.0622     0.1820 H      1 <0>       0.1400
38 H38      -3.4889    -7.6684    -1.3917 H      1 <0>       0.1400
39 H39      -4.9234    -5.8909    -2.3127 H      1 <0>       0.1600
@<TRIPOS>BOND
1    1    2 1
2    1   21 1
3    1   22 1
4    1   23 1
5    2    3 1
6    2    4 1
7    2    5 1
8    4   24 1
9    4   25 1
10    4   26 1
11    5    6 1
12    5   27 1
13    5   28 1
14    6    7 1
15    6   29 1
16    6   30 1
17    7    8 1
18    7    9 1
19    7   15 1
20    9   14 ar
21    9   10 ar
22   10   11 ar
23   10   31 1
24   11   12 ar
25   11   32 1
26   12   13 ar
27   12   33 1
28   13   14 ar
29   13   34 1
30   14   35 1
31   15   20 ar
32   15   16 ar
33   16   17 ar
34   16   36 1
35   17   18 ar
36   17   37 1
37   18   19 ar
38   18   38 1
39   19   20 ar
40   19   39 1
