@<TRIPOS>MOLECULE
ZINC000003938686
62   66    0    0    0
SMALL
USER_CHARGES
NO_NAME
@<TRIPOS>ATOM
1 C1        0.0496     0.7411    -2.0003 C.3    1 <0>      -0.2000
2 C2       -0.0716     0.0534    -0.6649 C.2    1 <0>       0.4300
3 O3        0.8329     0.1287     0.1408 O.2    1 <0>      -0.4500
4 C4       -1.2795    -0.7051    -0.3397 C.2    1 <0>      -0.2900
5 C5       -1.2209    -2.0841    -0.1672 C.2    1 <0>       0.0900
6 C6        0.0862    -2.8201    -0.3115 C.3    1 <0>      -0.1400
7 C7       -2.4044    -2.7799     0.1452 C.ar   1 <0>      -0.2800
8 C8       -2.4008    -4.1735     0.3304 C.ar   1 <0>       0.2600
9 N9       -3.5381    -4.7741     0.6218 N.ar   1 <0>      -0.5100
10 C10      -4.6692    -4.0858     0.7402 C.ar   1 <0>       0.6100
11 N11      -5.8306    -4.7647     1.0470 N.pl3  1 <0>      -0.6100
12 C12      -5.7859    -6.1292     1.3330 C.ar   1 <0>       0.3000
13 C13      -6.9410    -6.7827     1.7467 C.ar   1 <0>      -0.1500
14 C14      -6.8864    -8.1361     2.0276 C.ar   1 <0>      -0.1300
15 C15      -5.6669    -8.7951     1.8835 C.ar   1 <0>       0.1500
16 N16      -5.5648   -10.1643     2.1561 N.pl3  1 <0>      -0.6200
17 C17      -6.7597   -10.9629     2.4685 C.3    1 <0>       0.1200
18 C18      -6.5007   -11.7403     3.7634 C.3    1 <0>       0.0400
19 N19      -5.2569   -12.5102     3.6281 N.3    1 <0>      -0.6900
20 C20      -4.0992   -11.6245     3.4456 C.3    1 <0>       0.0400
21 C21      -4.2605   -10.8436     2.1317 C.3    1 <0>       0.1300
22 C22      -4.5555    -8.0773     1.4661 C.ar   1 <0>       0.0600
23 N23      -4.6455    -6.7880     1.2022 N.ar   1 <0>      -0.4200
24 N24      -4.7233    -2.7726     0.5751 N.ar   1 <0>      -0.6000
25 C25      -3.6276    -2.0831     0.2796 C.ar   1 <0>       0.4700
26 N26      -3.6791    -0.7236     0.1084 N.am   1 <0>      -0.5000
27 C27      -4.9589    -0.0256     0.2532 C.3    1 <0>       0.1200
28 C28      -4.9146     0.9105     1.4786 C.3    1 <0>      -0.1300
29 C29      -4.5367     2.2917     0.8880 C.3    1 <0>      -0.1400
30 C30      -5.3154     2.3156    -0.4507 C.3    1 <0>      -0.1100
31 C31      -5.2138     0.8678    -0.9734 C.3    1 <0>      -0.1200
32 C32      -2.5689    -0.0204    -0.1850 C.2    1 <0>       0.5600
33 O33      -2.6364     1.1862    -0.3326 O.2    1 <0>      -0.5000
34 H34       1.0109     1.2514    -2.0603 H      1 <0>       0.0900
35 H35      -0.0194     0.0012    -2.7977 H      1 <0>       0.0900
36 H36      -0.7552     1.4683    -2.1088 H      1 <0>       0.1000
37 H37       0.8921    -2.1026    -0.4662 H      1 <0>       0.0800
38 H38       0.2809    -3.3957     0.5934 H      1 <0>       0.0900
39 H39       0.0310    -3.4944    -1.1662 H      1 <0>       0.0900
40 H40      -1.4863    -4.7401     0.2356 H      1 <0>       0.1800
41 H41      -6.6781    -4.2932     1.0637 H      1 <0>       0.4300
42 H42      -7.8695    -6.2403     1.8480 H      1 <0>       0.1400
43 H43      -7.7680    -8.6694     2.3512 H      1 <0>       0.1400
44 H44      -7.6165   -10.3027     2.6029 H      1 <0>       0.0800
45 H45      -6.9562   -11.6615     1.6551 H      1 <0>       0.0700
46 H46      -6.4073   -11.0415     4.5947 H      1 <0>       0.0400
47 H47      -7.3311   -12.4209     3.9514 H      1 <0>       0.0900
48 H48      -5.1227   -13.1223     4.4189 H      1 <0>       0.3500
49 H49      -4.0393   -10.9273     4.2813 H      1 <0>       0.0400
50 H50      -3.1879   -12.2211     3.4031 H      1 <0>       0.0900
51 H51      -4.2157   -11.5327     1.2883 H      1 <0>       0.0700
52 H52      -3.4653   -10.1031     2.0458 H      1 <0>       0.0900
53 H53      -3.6067    -8.5806     1.3524 H      1 <0>       0.1600
54 H54      -5.7676    -0.7480     0.3634 H      1 <0>       0.1200
55 H55      -5.8916     0.9557     1.9597 H      1 <0>       0.0800
56 H56      -4.1551     0.5773     2.1859 H      1 <0>       0.0600
57 H57      -4.8701     3.0963     1.5434 H      1 <0>       0.0600
58 H58      -3.4629     2.3556     0.7115 H      1 <0>       0.1100
59 H59      -6.3572     2.5878    -0.2811 H      1 <0>       0.0600
60 H60      -4.8484     3.0079    -1.1513 H      1 <0>       0.0700
61 H61      -4.3852     0.7820    -1.6765 H      1 <0>       0.0700
62 H62      -6.1466     0.5795    -1.4580 H      1 <0>       0.0700
@<TRIPOS>BOND
1    1    2 1
2    1   34 1
3    1   35 1
4    1   36 1
5    2    3 2
6    2    4 1
7    4   32 1
8    4    5 2
9    5    6 1
10    5    7 1
11    6   37 1
12    6   38 1
13    6   39 1
14    7   25 ar
15    7    8 ar
16    8    9 ar
17    8   40 1
18    9   10 ar
19   10   11 1
20   10   24 ar
21   11   12 1
22   11   41 1
23   12   23 ar
24   12   13 ar
25   13   14 ar
26   13   42 1
27   14   15 ar
28   14   43 1
29   15   16 1
30   15   22 ar
31   16   21 1
32   16   17 1
33   17   18 1
34   17   44 1
35   17   45 1
36   18   19 1
37   18   46 1
38   18   47 1
39   19   20 1
40   19   48 1
41   20   21 1
42   20   49 1
43   20   50 1
44   21   51 1
45   21   52 1
46   22   23 ar
47   22   53 1
48   24   25 ar
49   25   26 1
50   26   27 1
51   26   32 am
52   27   31 1
53   27   28 1
54   27   54 1
55   28   29 1
56   28   55 1
57   28   56 1
58   29   30 1
59   29   57 1
60   29   58 1
61   30   31 1
62   30   59 1
63   30   60 1
64   31   61 1
65   31   62 1
66   32   33 2
