@<TRIPOS>MOLECULE
ZINC000003812865
30   31    0    0    0
SMALL
USER_CHARGES
NO_NAME
@<TRIPOS>ATOM
1 O1        0.0021    -0.0046     0.0408 O.co2  1 <0>      -0.7000
2 C2       -0.0144     1.2192     0.0383 C.2    1 <0>       0.5300
3 O3        1.0372     1.8454     0.0332 O.co2  1 <0>      -0.6700
4 C4       -1.2956     1.9360     0.0352 C.2    1 <0>      -0.2200
5 C5       -2.4943     1.2364     0.0409 C.2    1 <0>      -0.0100
6 C6       -3.7112     1.9418     0.0377 C.2    1 <0>       0.0200
7 N7       -4.8633     1.2701     0.0432 N.2    1 <0>      -0.1500
8 N8       -5.9803     1.9065     0.1492 N.pl3  1 <0>      -0.4700
9 C9       -7.1761     1.2006     0.2618 C.ar   1 <0>       0.1300
10 C10      -7.1632    -0.1930     0.2654 C.ar   1 <0>      -0.1200
11 C11      -8.3418    -0.9001     0.3759 C.ar   1 <0>      -0.1400
12 C12      -9.5512    -0.2284     0.4845 C.ar   1 <0>       0.1200
13 O13     -10.7087    -0.9263     0.5931 O.3    1 <0>      -0.4700
14 C14      -9.5738     1.1755     0.4822 C.ar   1 <0>      -0.1400
15 C15     -10.8527     1.8949     0.5971 C.2    1 <0>       0.5200
16 O16     -10.8688     3.1181     0.5947 O.co2  1 <0>      -0.6900
17 O17     -11.8997     1.2695     0.6948 O.co2  1 <0>      -0.6700
18 C18      -8.3758     1.8860     0.3756 C.ar   1 <0>      -0.1000
19 C19      -3.7256     3.3565     0.0293 C.2    1 <0>      -0.0900
20 C20      -2.5743     4.0662     0.0232 C.2    1 <0>      -0.1900
21 C21      -1.3283     3.4027     0.0321 C.2    1 <0>       0.3900
22 O22      -0.2882     4.0430     0.0270 O.2    1 <0>      -0.4400
23 H23      -2.4926     0.1564     0.0473 H      1 <0>       0.1400
24 H24      -5.9877     2.8764     0.1505 H      1 <0>       0.3900
25 H25      -6.2253    -0.7218     0.1808 H      1 <0>       0.1400
26 H26      -8.3236    -1.9800     0.3776 H      1 <0>       0.1300
27 H27     -10.9637    -1.1257     1.5043 H      1 <0>       0.3800
28 H28      -8.3850     2.9659     0.3732 H      1 <0>       0.1300
29 H29      -4.6713     3.8782     0.0274 H      1 <0>       0.1200
30 H30      -2.6083     5.1456     0.0164 H      1 <0>       0.1300
@<TRIPOS>BOND
1    1    2 ar
2    2    3 ar
3    2    4 1
4    4   21 1
5    4    5 2
6    5    6 1
7    5   23 1
8    6    7 2
9    6   19 1
10    7    8 1
11    8    9 1
12    8   24 1
13    9   18 ar
14    9   10 ar
15   10   11 ar
16   10   25 1
17   11   12 ar
18   11   26 1
19   12   13 1
20   12   14 ar
21   13   27 1
22   14   15 1
23   14   18 ar
24   15   16 ar
25   15   17 ar
26   18   28 1
27   19   20 2
28   19   29 1
29   20   21 1
30   20   30 1
31   21   22 2
