@<TRIPOS>MOLECULE
ZINC000034089131
67    71    1     0     0
SMALL
USER_CHARGES
@<TRIPOS>ATOM
1      C1      0.4457   -0.2122    3.9226 C.3      1 ZINC000034089131   -0.2000
2      C2      0.2437    0.0842    2.4589 C.2      1 ZINC000034089131    0.3400
3      O3      1.1185    0.6251    1.8261 O.2      1 ZINC000034089131   -0.4400
4      C4     -1.0499   -0.2943    1.7850 C.3      1 ZINC000034089131    0.1000
5      O5     -2.1467   -0.1090    2.6820 O.3      1 ZINC000034089131   -0.5400
6      C6     -1.2542    0.5510    0.5044 C.3      1 ZINC000034089131   -0.1500
7      C7     -1.3900   -0.4562   -0.6686 C.3      1 ZINC000034089131   -0.1100
8      C8     -1.8664   -1.7380    0.0278 C.3      1 ZINC000034089131   -0.0800
9      H9     -2.9238   -1.6651    0.2822 H        1 ZINC000034089131    0.0900
10     C10    -1.5900   -3.0227   -0.7412 C.3      1 ZINC000034089131   -0.0500
11     H11    -0.5353   -3.0507   -1.0152 H        1 ZINC000034089131    0.1000
12     C12    -2.4298   -3.0480   -2.0073 C.3      1 ZINC000034089131   -0.1100
13     C13    -2.4785   -4.4476   -2.6192 C.3      1 ZINC000034089131   -0.1000
14     C14    -3.0332   -5.3876   -1.5787 C.2      1 ZINC000034089131    0.0300
15     C15    -3.9400   -6.3382   -1.8962 C.2      1 ZINC000034089131   -0.2500
16     C16    -4.5141   -7.1429   -0.8971 C.2      1 ZINC000034089131    0.3900
17     O17    -5.2085   -8.0870   -1.2166 O.2      1 ZINC000034089131   -0.4700
18     C18    -4.2835   -6.8544    0.5621 C.3      1 ZINC000034089131   -0.1700
19     C19    -2.8474   -6.3677    0.7758 C.3      1 ZINC000034089131   -0.0800
20     C20    -2.5595   -5.2525   -0.2017 C.2      1 ZINC000034089131   -0.1300
21     C21    -1.8871   -4.1778    0.1809 C.2      1 ZINC000034089131   -0.0500
22     C22    -1.3666   -4.1493    1.6043 C.3      1 ZINC000034089131   -0.0200
23     H23    -1.8954   -4.8977    2.1946 H        1 ZINC000034089131    0.1000
24     C24     0.1057   -4.4707    1.6004 C.ar     1 ZINC000034089131   -0.1100
25     C25     0.8683   -4.2257    2.7277 C.ar     1 ZINC000034089131   -0.0700
26     C26     2.2178   -4.5190    2.7275 C.ar     1 ZINC000034089131   -0.1900
27     C27     2.8091   -5.0608    1.5932 C.ar     1 ZINC000034089131    0.2100
28     N28     4.1736   -5.3591    1.5898 N.pl3    1 ZINC000034089131   -0.6400
29     C29     4.9829   -5.1007    2.7833 C.3      1 ZINC000034089131    0.0900
30     C30     4.7954   -5.9305    0.3927 C.3      1 ZINC000034089131    0.1000
31     C31     2.0401   -5.3057    0.4626 C.ar     1 ZINC000034089131   -0.1900
32     C32     0.6900   -5.0152    0.4715 C.ar     1 ZINC000034089131   -0.0800
33     C33    -1.5792   -2.7646    2.2359 C.3      1 ZINC000034089131   -0.0900
34     C34    -0.9941   -1.7449    1.3110 C.3      1 ZINC000034089131   -0.0400
35     C35     0.4432   -2.1290    0.9542 C.3      1 ZINC000034089131   -0.1800
36     H36     1.4335    0.1311    4.2299 H        1 ZINC000034089131    0.0800
37     H37    -0.3163    0.3043    4.5064 H        1 ZINC000034089131    0.0900
38     H38     0.3659   -1.2862    4.0902 H        1 ZINC000034089131    0.0900
39     H39    -2.2442    0.7983    3.0020 H        1 ZINC000034089131    0.3800
40     H40    -2.1617    1.1485    0.5914 H        1 ZINC000034089131    0.0800
41     H41    -0.3930    1.1994    0.3429 H        1 ZINC000034089131    0.0800
42     H42    -2.1315   -0.1108   -1.3890 H        1 ZINC000034089131    0.0700
43     H43    -0.4265   -0.6161   -1.1525 H        1 ZINC000034089131    0.0700
44     H44    -3.4441   -2.7282   -1.7683 H        1 ZINC000034089131    0.0700
45     H45    -2.0012   -2.3567   -2.7329 H        1 ZINC000034089131    0.0800
46     H46    -3.1258   -4.4445   -3.4962 H        1 ZINC000034089131    0.0900
47     H47    -1.4739   -4.7617   -2.9023 H        1 ZINC000034089131    0.0900
48     H48    -4.2266   -6.4806   -2.9277 H        1 ZINC000034089131    0.1300
49     H49    -4.9800   -6.0842    0.8934 H        1 ZINC000034089131    0.1000
50     H50    -4.4479   -7.7630    1.1413 H        1 ZINC000034089131    0.0900
51     H51    -2.7350   -5.9981    1.7951 H        1 ZINC000034089131    0.0900
52     H52    -2.1536   -7.1909    0.6053 H        1 ZINC000034089131    0.0800
53     H53     0.4081   -3.8041    3.6091 H        1 ZINC000034089131    0.1200
54     H54     2.8129   -4.3271    3.6081 H        1 ZINC000034089131    0.1200
55     H55     4.9777   -5.9826    3.4238 H        1 ZINC000034089131    0.0500
56     H56     6.0067   -4.8737    2.4859 H        1 ZINC000034089131    0.0700
57     H57     4.5665   -4.2535    3.3282 H        1 ZINC000034089131    0.0700
58     H58     4.6743   -5.2419   -0.4435 H        1 ZINC000034089131    0.0500
59     H59     5.8571   -6.0942    0.5777 H        1 ZINC000034089131    0.0700
60     H60     4.3176   -6.8804    0.1532 H        1 ZINC000034089131    0.0500
61     H61     2.4967   -5.7265   -0.4210 H        1 ZINC000034089131    0.1200
62     H62     0.0915   -5.2053   -0.4072 H        1 ZINC000034089131    0.1200
63     H63    -2.6442   -2.5812    2.3783 H        1 ZINC000034089131    0.0800
64     H64    -1.0609   -2.7098    3.1932 H        1 ZINC000034089131    0.0700
65     H65     0.4349   -3.0057    0.3066 H        1 ZINC000034089131    0.1000
66     H66     0.9232   -1.2989    0.4359 H        1 ZINC000034089131    0.0500
67     H67     0.9956   -2.3561    1.8661 H        1 ZINC000034089131    0.0700
@<TRIPOS>BOND
1     1     2     1
2     1     36    1
3     1     37    1
4     1     38    1
5     2     3     2
6     2     4     1
7     4     34    1
8     4     5     1
9     4     6     1
10    5     39    1
11    6     7     1
12    6     40    1
13    6     41    1
14    7     8     1
15    7     42    1
16    7     43    1
17    8     9     1
18    8     34    1
19    8     10    1
20    10    11    1
21    10    21    1
22    10    12    1
23    12    13    1
24    12    44    1
25    12    45    1
26    13    14    1
27    13    46    1
28    13    47    1
29    14    20    1
30    14    15    2
31    15    16    1
32    15    48    1
33    16    17    2
34    16    18    1
35    18    19    1
36    18    49    1
37    18    50    1
38    19    20    1
39    19    51    1
40    19    52    1
41    20    21    2
42    21    22    1
43    22    23    1
44    22    24    1
45    22    33    1
46    24    32    ar
47    24    25    ar
48    25    26    ar
49    25    53    1
50    26    27    ar
51    26    54    1
52    27    28    1
53    27    31    ar
54    28    29    1
55    28    30    1
56    29    55    1
57    29    56    1
58    29    57    1
59    30    58    1
60    30    59    1
61    30    60    1
62    31    32    ar
63    31    61    1
64    32    62    1
65    33    34    1
66    33    63    1
67    33    64    1
68    34    35    1
69    35    65    1
70    35    66    1
71    35    67    1
@<TRIPOS>SUBSTRUCTURE
1   ZINC000034089131 1     RESIDUE    1   A     ZIN   1
