@<TRIPOS>MOLECULE
ZINC000001997125
31    33    1     0     0
SMALL
USER_CHARGES
@<TRIPOS>ATOM
1      N1     -0.0112    0.8713    1.5967 N.pl3    1 ZINC000001997125   -0.8500
2      C2      0.0049   -0.2636    0.7993 C.ar     1 ZINC000001997125    0.3000
3      C3     -1.1932   -0.8564    0.3951 C.ar     1 ZINC000001997125   -0.1700
4      C4     -1.1802   -1.9841   -0.3972 C.ar     1 ZINC000001997125   -0.0400
5      C5      0.0213   -2.5476   -0.8054 C.ar     1 ZINC000001997125   -0.0900
6      C6      1.2199   -1.9757   -0.4160 C.ar     1 ZINC000001997125   -0.0900
7      C7      1.2170   -0.8175    0.3906 C.ar     1 ZINC000001997125   -0.2500
8      C8      2.6320   -0.4787    0.6171 C.2      1 ZINC000001997125    0.5900
9      O9      3.0396    0.4620    1.2694 O.2      1 ZINC000001997125   -0.4700
10     N10     3.3985   -1.3835   -0.0181 N.am     1 ZINC000001997125   -0.5700
11     C11     4.8635   -1.3734   -0.0200 C.3      1 ZINC000001997125    0.1200
12     H12     5.2242   -0.7101    0.7661 H        1 ZINC000001997125    0.1500
13     C13     5.3704   -0.8797   -1.3792 C.3      1 ZINC000001997125   -0.1400
14     C14     4.9450   -1.8862   -2.4536 C.3      1 ZINC000001997125   -0.1500
15     C15     5.4537   -3.2533   -2.0793 C.2      1 ZINC000001997125    0.5500
16     O16     5.7101   -4.0522   -2.9543 O.2      1 ZINC000001997125   -0.5000
17     N17     5.6290   -3.6040   -0.7965 N.am     1 ZINC000001997125   -0.6600
18     C18     5.3766   -2.7681    0.2235 C.2      1 ZINC000001997125    0.5200
19     O19     5.5657   -3.1436    1.3605 O.2      1 ZINC000001997125   -0.4800
20     C20     2.6426   -2.2963   -0.6549 C.2      1 ZINC000001997125    0.5700
21     O21     3.0594   -3.2306   -1.3097 O.2      1 ZINC000001997125   -0.4600
22     H22     0.8231    1.2824    1.8721 H        1 ZINC000001997125    0.4100
23     H23    -0.8567    1.2560    1.8757 H        1 ZINC000001997125    0.4100
24     H24    -2.1353   -0.4291    0.7054 H        1 ZINC000001997125    0.1400
25     H25    -2.1133   -2.4337   -0.7031 H        1 ZINC000001997125    0.1500
26     H26     0.0206   -3.4315   -1.4260 H        1 ZINC000001997125    0.1400
27     H27     4.9367    0.0958   -1.5993 H        1 ZINC000001997125    0.1000
28     H28     6.4576   -0.8037   -1.3588 H        1 ZINC000001997125    0.1000
29     H29     3.8574   -1.9084   -2.5218 H        1 ZINC000001997125    0.1100
30     H30     5.3653   -1.5919   -3.4153 H        1 ZINC000001997125    0.1200
31     H31     5.9510   -4.4971   -0.5975 H        1 ZINC000001997125    0.4200
@<TRIPOS>BOND
1     1     2     1
2     1     22    1
3     1     23    1
4     2     7     ar
5     2     3     ar
6     3     4     ar
7     3     24    1
8     4     5     ar
9     4     25    1
10    5     6     ar
11    5     26    1
12    6     20    1
13    6     7     ar
14    7     8     1
15    8     9     2
16    8     10    am
17    10    11    1
18    10    20    am
19    11    12    1
20    11    18    1
21    11    13    1
22    13    14    1
23    13    27    1
24    13    28    1
25    14    15    1
26    14    29    1
27    14    30    1
28    15    16    2
29    15    17    am
30    17    18    am
31    17    31    1
32    18    19    2
33    20    21    2
@<TRIPOS>SUBSTRUCTURE
1   ZINC000001997125 1     RESIDUE    1   A     ZIN   1
