@<TRIPOS>MOLECULE
ZINC000003812862
23   22    0    0    0
SMALL
NO_CHARGES


@<TRIPOS>ATOM
1 N1            -0.0116     1.0048     0.0076 N.4
2 H2             0.0021    -0.0041     0.0020 H
3 H3             0.9350     1.3541     0.0004 H
4 H4            -0.4996     1.3391    -0.8099 H
5 C5            -0.6992     1.4786     1.2162 C.3
6 C6             0.0408     0.9717     2.4557 C.3
7 C7            -0.6753     1.4652     3.7145 C.3
8 O8            -0.6947     2.8940     3.7224 O.3
9 P9            -2.3856     0.8342     3.7275 P.3
10 O10           -3.1088     1.3324     4.9986 O.2
11 O11           -3.1328     1.3460     2.4758 O.3
12 O12           -2.3638    -0.7757     3.7186 O.3
13 P13            0.2064     0.8613     5.1914 P.3
14 O14            0.2273    -0.6836     5.1829 O.2
15 O15           -0.5168     1.3595     6.4626 O.3
16 O16            1.7168     1.4185     5.1800 O.3
17 H17           -0.7140     2.5685     1.2222 H
18 H18           -1.7218     1.1013     1.2239 H
19 H19            0.0556    -0.1181     2.4497 H
20 H20            1.0634     1.3490     2.4480 H
21 H21            0.1832     3.2993     3.7162 H
22 H22           -3.2417    -1.1810     3.7248 H
23 H23            2.2460     1.1362     5.9385 H
@<TRIPOS>BOND
1    1    2 1
2    1    3 1
3    1    4 1
4    1    5 1
5    5    6 1
6    5   17 1
7    5   18 1
8    6    7 1
9    6   19 1
10    6   20 1
11    7    8 1
12    7    9 1
13    7   13 1
14    8   21 1
15    9   10 2
16    9   11 1
17    9   12 1
18   12   22 1
19   13   14 2
20   13   15 1
21   13   16 1
22   16   23 1


