@<TRIPOS>MOLECULE
ZINC000000004009
34    36    1     0     0
SMALL
USER_CHARGES
@<TRIPOS>ATOM
1      O1      0.2531    1.4561   -0.4835 O.3      1 ZINC000000004009   -0.5200
2      C2      0.1258    0.0392   -0.3485 C.3      1 ZINC000000004009    0.1700
3      C3     -1.3508   -0.3269   -0.1859 C.3      1 ZINC000000004009    0.1400
4      N4     -2.0960    0.1129   -1.3681 N.pl3    1 ZINC000000004009   -0.3800
5      C5     -2.8496   -0.6526   -2.1763 C.2      1 ZINC000000004009    0.2500
6      N6     -3.3461    0.1132   -3.1138 N.2      1 ZINC000000004009   -0.5400
7      C7     -2.9338    1.3679   -2.9380 C.2      1 ZINC000000004009    0.1900
8      N8     -2.1700    1.4192   -1.8785 N.2      1 ZINC000000004009   -0.2800
9      C9      0.6863   -0.6445   -1.5972 C.3      1 ZINC000000004009    0.1000
10     N10     2.1172   -0.3525   -1.7131 N.pl3    1 ZINC000000004009   -0.3800
11     C11     3.1189   -1.2463   -1.7821 C.2      1 ZINC000000004009    0.2600
12     N12     4.2451   -0.5874   -1.8789 N.2      1 ZINC000000004009   -0.5400
13     C13     4.0038    0.7230   -1.8750 C.2      1 ZINC000000004009    0.2100
14     N14     2.7145    0.9168   -1.7805 N.2      1 ZINC000000004009   -0.3300
15     C15     0.8939   -0.4209    0.8637 C.ar     1 ZINC000000004009   -0.1700
16     C16     1.5699    0.4984    1.6430 C.ar     1 ZINC000000004009   -0.0400
17     C17     2.2745    0.0779    2.7554 C.ar     1 ZINC000000004009   -0.1500
18     C18     2.3035   -1.2653    3.0900 C.ar     1 ZINC000000004009    0.1400
19     F19     2.9918   -1.6760    4.1776 F        1 ZINC000000004009   -0.1200
20     C20     1.6266   -2.1872    2.3101 C.ar     1 ZINC000000004009   -0.1800
21     C21     0.9171   -1.7643    1.1995 C.ar     1 ZINC000000004009    0.1300
22     F22     0.2561   -2.6629    0.4375 F        1 ZINC000000004009   -0.1300
23     H23     1.1647    1.7607   -0.5907 H        1 ZINC000000004009    0.3900
24     H24    -1.4474   -1.4071   -0.0767 H        1 ZINC000000004009    0.1200
25     H25    -1.7517    0.1651    0.7002 H        1 ZINC000000004009    0.1100
26     H26    -3.0156   -1.7145   -2.0706 H        1 ZINC000000004009    0.2200
27     H27    -3.1923    2.2073   -3.5666 H        1 ZINC000000004009    0.2200
28     H28     0.5406   -1.7218   -1.5180 H        1 ZINC000000004009    0.1100
29     H29     0.1667   -0.2715   -2.4798 H        1 ZINC000000004009    0.1000
30     H30     3.0127   -2.3209   -1.7607 H        1 ZINC000000004009    0.2200
31     H31     4.7517    1.4991   -1.9431 H        1 ZINC000000004009    0.2200
32     H32     1.5482    1.5463    1.3824 H        1 ZINC000000004009    0.1500
33     H33     2.8028    0.7972    3.3635 H        1 ZINC000000004009    0.1500
34     H34     1.6487   -3.2352    2.5704 H        1 ZINC000000004009    0.1600
@<TRIPOS>BOND
1     1     2     1
2     1     23    1
3     2     3     1
4     2     9     1
5     2     15    1
6     3     4     1
7     3     24    1
8     3     25    1
9     4     8     1
10    4     5     1
11    5     6     2
12    5     26    1
13    6     7     1
14    7     8     2
15    7     27    1
16    9     10    1
17    9     28    1
18    9     29    1
19    10    14    1
20    10    11    1
21    11    12    2
22    11    30    1
23    12    13    1
24    13    14    2
25    13    31    1
26    15    21    ar
27    15    16    ar
28    16    17    ar
29    16    32    1
30    17    18    ar
31    17    33    1
32    18    19    1
33    18    20    ar
34    20    21    ar
35    20    34    1
36    21    22    1
@<TRIPOS>SUBSTRUCTURE
1   ZINC000000004009 1     RESIDUE    1   A     ZIN   1
