@<TRIPOS>MOLECULE
ZINC000058581064
49    52    1     0     0
SMALL
USER_CHARGES
@<TRIPOS>ATOM
1      C1      0.0027    1.5324   -0.0062 C.3      1 ZINC000058581064   -0.1700
2      C2      0.0043    0.0024    0.0027 C.3      1 ZINC000058581064    0.1400
3      H3      0.4255   -0.3641   -0.9335 H        1 ZINC000058581064    0.0800
4      C4     -1.4325   -0.5061    0.1466 C.3      1 ZINC000058581064   -0.1700
5      C5     -1.3582   -2.0112    0.4491 C.3      1 ZINC000058581064    0.0600
6      O6     -0.8118   -2.1648    1.7575 O.3      1 ZINC000058581064   -0.3600
7      C7      0.4129   -1.5348    2.0225 C.3      1 ZINC000058581064    0.3200
8      H8      0.2927   -1.0475    2.9901 H        1 ZINC000058581064    0.0900
9      C9      1.5624   -2.5265    2.2060 C.3      1 ZINC000058581064    0.0600
10     N10     2.6969   -1.7836    2.7896 N.pl3    1 ZINC000058581064   -0.4400
11     C11     3.4594   -2.3751    3.7157 C.2      1 ZINC000058581064    0.2500
12     C12     4.5247   -1.7208    4.3039 C.2      1 ZINC000058581064   -0.3400
13     C13     5.3509   -2.3905    5.3232 C.2      1 ZINC000058581064    0.5900
14     O14     5.1673   -3.5652    5.5791 O.2      1 ZINC000058581064   -0.5500
15     N15     6.3103   -1.7014    5.9722 N.am     1 ZINC000058581064   -0.7200
16     C16     7.2069   -2.3926    6.9019 C.3      1 ZINC000058581064    0.1600
17     C17     8.1801   -1.4038    7.4902 C.ar     1 ZINC000058581064   -0.1500
18     C18     9.4628   -1.3125    6.9841 C.ar     1 ZINC000058581064   -0.0400
19     C19    10.3564   -0.4056    7.5224 C.ar     1 ZINC000058581064   -0.1600
20     C20     9.9672    0.4125    8.5693 C.ar     1 ZINC000058581064    0.1400
21     F21    10.8406    1.2991    9.0949 F        1 ZINC000058581064   -0.1300
22     C22     8.6824    0.3219    9.0771 C.ar     1 ZINC000058581064   -0.1900
23     C23     7.7869   -0.5828    8.5339 C.ar     1 ZINC000058581064    0.1500
24     F24     6.5329   -0.6722    9.0284 F        1 ZINC000058581064   -0.1200
25     C25     4.8143   -0.3423    3.8888 C.2      1 ZINC000058581064    0.3900
26     O26     5.7382    0.2865    4.3779 O.2      1 ZINC000058581064   -0.4900
27     C27     3.9455    0.2506    2.8587 C.2      1 ZINC000058581064    0.0900
28     O28     4.1560    1.5175    2.4234 O.3      1 ZINC000058581064   -0.4200
29     C29     2.9244   -0.4978    2.3508 C.2      1 ZINC000058581064    0.0000
30     C30     2.0495    0.0785    1.3043 C.2      1 ZINC000058581064    0.5800
31     O31     2.4196    1.0203    0.6304 O.2      1 ZINC000058581064   -0.4600
32     N32     0.8165   -0.4748    1.1191 N.am     1 ZINC000058581064   -0.6300
33     H33     0.9884    1.8951   -0.2974 H        1 ZINC000058581064    0.0900
34     H34    -0.7412    1.8908   -0.7177 H        1 ZINC000058581064    0.0700
35     H35    -0.2404    1.9013    0.9903 H        1 ZINC000058581064    0.0600
36     H36    -1.9289    0.0127    0.9667 H        1 ZINC000058581064    0.0900
37     H37    -1.9788   -0.3412   -0.7821 H        1 ZINC000058581064    0.1000
38     H38    -2.3575   -2.4450    0.4129 H        1 ZINC000058581064    0.1200
39     H39    -0.7146   -2.5031   -0.2801 H        1 ZINC000058581064    0.0600
40     H40     1.2574   -3.3267    2.8803 H        1 ZINC000058581064    0.1400
41     H41     1.8498   -2.9435    1.2408 H        1 ZINC000058581064    0.1000
42     H42     3.2366   -3.3896    4.0114 H        1 ZINC000058581064    0.1900
43     H43     6.4071   -0.7477    5.8237 H        1 ZINC000058581064    0.4100
44     H44     6.6215   -2.8460    7.7018 H        1 ZINC000058581064    0.0800
45     H45     7.7555   -3.1688    6.3683 H        1 ZINC000058581064    0.0800
46     H46     9.7674   -1.9505    6.1677 H        1 ZINC000058581064    0.1500
47     H47    11.3587   -0.3354    7.1263 H        1 ZINC000058581064    0.1500
48     H48     8.3779    0.9597    9.8938 H        1 ZINC000058581064    0.1500
49     H49     4.9038    1.9600    2.8477 H        1 ZINC000058581064    0.4100
@<TRIPOS>BOND
1     1     2     1
2     1     33    1
3     1     34    1
4     1     35    1
5     2     3     1
6     2     32    1
7     2     4     1
8     4     5     1
9     4     36    1
10    4     37    1
11    5     6     1
12    5     38    1
13    5     39    1
14    6     7     1
15    7     8     1
16    7     32    1
17    7     9     1
18    9     10    1
19    9     40    1
20    9     41    1
21    10    29    1
22    10    11    1
23    11    12    2
24    11    42    1
25    12    13    1
26    12    25    1
27    13    14    2
28    13    15    am
29    15    16    1
30    15    43    1
31    16    17    1
32    16    44    1
33    16    45    1
34    17    23    ar
35    17    18    ar
36    18    19    ar
37    18    46    1
38    19    20    ar
39    19    47    1
40    20    21    1
41    20    22    ar
42    22    23    ar
43    22    48    1
44    23    24    1
45    25    26    2
46    25    27    1
47    27    28    1
48    27    29    2
49    28    49    1
50    29    30    1
51    30    31    2
52    30    32    am
@<TRIPOS>SUBSTRUCTURE
1   ZINC000058581064 1     RESIDUE    1   A     ZIN   1
