@<TRIPOS>MOLECULE
ZINC000000020237
39    39    1     0     0
SMALL
USER_CHARGES
@<TRIPOS>ATOM
1      C1      0.3084   -2.1506    1.1598 C.3      1 ZINC000000020237   -0.1500
2      C2      1.3724   -2.4217    2.2252 C.3      1 ZINC000000020237    0.0500
3      N3      1.9070   -1.1458    2.7192 N.3      1 ZINC000000020237   -0.5200
4      C4      2.6352   -1.3333    3.9811 C.3      1 ZINC000000020237    0.0500
5      C5      1.6570   -1.7661    5.0750 C.3      1 ZINC000000020237   -0.1500
6      C6      2.7604   -0.5061    1.7090 C.3      1 ZINC000000020237    0.0300
7      C7      2.9650    0.9429    2.0689 C.2      1 ZINC000000020237    0.5100
8      O8      2.3991    1.4142    3.0326 O.2      1 ZINC000000020237   -0.4900
9      N9      3.7769    1.7151    1.3199 N.am     1 ZINC000000020237   -0.6800
10     C10     4.0126    3.0446    1.6872 C.ar     1 ZINC000000020237    0.1300
11     C11     2.9496    3.9278    1.8235 C.ar     1 ZINC000000020237   -0.0700
12     C12     1.5401    3.4554    1.5766 C.3      1 ZINC000000020237   -0.1100
13     C13     3.1856    5.2394    2.1861 C.ar     1 ZINC000000020237   -0.1200
14     C14     4.4787    5.6736    2.4129 C.ar     1 ZINC000000020237   -0.1100
15     C15     5.5394    4.7968    2.2776 C.ar     1 ZINC000000020237   -0.1200
16     C16     5.3096    3.4823    1.9217 C.ar     1 ZINC000000020237   -0.0900
17     C17     6.4661    2.5274    1.7744 C.3      1 ZINC000000020237   -0.1100
18     H18     0.7523   -1.5895    0.3375 H        1 ZINC000000020237    0.0500
19     H19    -0.0804   -3.0976    0.7853 H        1 ZINC000000020237    0.0600
20     H20    -0.5048   -1.5716    1.5975 H        1 ZINC000000020237    0.0600
21     H21     0.9259   -2.9733    3.0526 H        1 ZINC000000020237    0.0800
22     H22     2.1803   -3.0102    1.7903 H        1 ZINC000000020237    0.0400
23     H23     3.3970   -2.1019    3.8502 H        1 ZINC000000020237    0.0300
24     H24     3.1107   -0.3957    4.2691 H        1 ZINC000000020237    0.0800
25     H25     1.1815   -2.7037    4.7871 H        1 ZINC000000020237    0.0500
26     H26     2.1973   -1.9052    6.0114 H        1 ZINC000000020237    0.0600
27     H27     0.8952   -0.9975    5.2060 H        1 ZINC000000020237    0.0700
28     H28     3.7253   -1.0119    1.6755 H        1 ZINC000000020237    0.0600
29     H29     2.2806   -0.5736    0.7326 H        1 ZINC000000020237    0.1100
30     H30     4.1979    1.3493    0.5263 H        1 ZINC000000020237    0.4100
31     H31     1.0744    3.1897    2.5256 H        1 ZINC000000020237    0.0800
32     H32     0.9678    4.2522    1.1015 H        1 ZINC000000020237    0.0600
33     H33     1.5585    2.5825    0.9240 H        1 ZINC000000020237    0.0600
34     H34     2.3594    5.9267    2.2923 H        1 ZINC000000020237    0.1300
35     H35     4.6607    6.6999    2.6960 H        1 ZINC000000020237    0.1200
36     H36     6.5483    5.1392    2.4547 H        1 ZINC000000020237    0.1300
37     H37     6.6616    2.0431    2.7311 H        1 ZINC000000020237    0.0700
38     H38     6.2206    1.7717    1.0282 H        1 ZINC000000020237    0.0600
39     H39     7.3526    3.0766    1.4573 H        1 ZINC000000020237    0.0700
@<TRIPOS>BOND
1     1     2     1
2     1     18    1
3     1     19    1
4     1     20    1
5     2     3     1
6     2     21    1
7     2     22    1
8     3     4     1
9     3     6     1
10    4     5     1
11    4     23    1
12    4     24    1
13    5     25    1
14    5     26    1
15    5     27    1
16    6     7     1
17    6     28    1
18    6     29    1
19    7     8     2
20    7     9     am
21    9     10    1
22    9     30    1
23    10    16    ar
24    10    11    ar
25    11    12    1
26    11    13    ar
27    12    31    1
28    12    32    1
29    12    33    1
30    13    14    ar
31    13    34    1
32    14    15    ar
33    14    35    1
34    15    16    ar
35    15    36    1
36    16    17    1
37    17    37    1
38    17    38    1
39    17    39    1
@<TRIPOS>SUBSTRUCTURE
1   ZINC000000020237 1     RESIDUE    1   A     ZIN   1
