@<TRIPOS>MOLECULE
ZINC000003830453
44    46    1     0     0
SMALL
USER_CHARGES
@<TRIPOS>ATOM
1      C1      1.2941    1.3298   -2.2708 C.3      1 ZINC000003830453    0.0400
2      O2      1.2262   -0.0878   -2.1037 O.3      1 ZINC000003830453   -0.4100
3      C3      0.4882   -0.5027   -0.9525 C.3      1 ZINC000003830453    0.1300
4      C4      0.3773   -2.0056   -0.9418 C.2      1 ZINC000003830453   -0.1800
5      C5     -0.3516   -2.5282    0.0363 C.2      1 ZINC000003830453    0.1000
6      C6     -0.9496   -1.6509    1.0557 C.2      1 ZINC000003830453    0.5200
7      O7     -0.8542   -0.4358    0.9492 O.co2    1 ZINC000003830453   -0.6700
8      O8     -1.5421   -2.1367    2.0095 O.co2    1 ZINC000003830453   -0.6500
9      N9     -0.5537   -3.9132    0.1004 N.am     1 ZINC000003830453   -0.5400
10     C10    -1.3840   -4.8392    0.5634 C.2      1 ZINC000003830453    0.5200
11     O11    -2.2236   -4.8152    1.4384 O.2      1 ZINC000003830453   -0.4500
12     C12    -0.9258   -5.9335   -0.3721 C.3      1 ZINC000003830453    0.1300
13     H13    -0.6456   -6.8627    0.1242 H        1 ZINC000003830453    0.1500
14     N14    -1.7888   -6.1336   -1.5390 N.am     1 ZINC000003830453   -0.6800
15     C15    -2.6212   -7.1924   -1.5879 C.2      1 ZINC000003830453    0.5400
16     O16    -2.5916   -8.0297   -0.7078 O.2      1 ZINC000003830453   -0.5000
17     C17    -3.5725   -7.3356   -2.7151 C.2      1 ZINC000003830453    0.1800
18     N18    -4.4586   -8.2906   -2.7024 N.2      1 ZINC000003830453   -0.2700
19     O19    -4.5870   -9.1221   -1.5635 O.3      1 ZINC000003830453   -0.1800
20     C20    -5.5966  -10.1258   -1.6875 C.3      1 ZINC000003830453    0.0300
21     C21    -3.5160   -6.3945   -3.8543 C.2      1 ZINC000003830453    0.1400
22     C22    -4.4298   -6.4037   -4.8446 C.2      1 ZINC000003830453   -0.2300
23     S23    -4.0090   -5.1386   -5.9965 S.3      1 ZINC000003830453    0.0800
24     C24    -2.6117   -4.7055   -5.0167 C.2      1 ZINC000003830453    0.3700
25     N25    -1.7096   -3.6976   -5.3130 N.pl3    1 ZINC000003830453   -0.8100
26     N26    -2.5603   -5.4720   -3.9726 N.2      1 ZINC000003830453   -0.5400
27     C27     0.2264   -4.9712   -0.5999 C.3      1 ZINC000003830453    0.1200
28     H28     1.1568   -5.2548   -0.1080 H        1 ZINC000003830453    0.1400
29     S29     0.4492   -4.4102   -2.3215 S.3      1 ZINC000003830453   -0.2500
30     C30     1.0965   -2.7232   -2.0368 C.3      1 ZINC000003830453   -0.0100
31     H31     0.2862    1.7323   -2.3725 H        1 ZINC000003830453    0.0400
32     H32     1.7772    1.7754   -1.4012 H        1 ZINC000003830453    0.0400
33     H33     1.8705    1.5630   -3.1660 H        1 ZINC000003830453    0.0800
34     H34     1.0033   -0.1700   -0.0514 H        1 ZINC000003830453    0.0700
35     H35    -0.5095   -0.0650   -0.9834 H        1 ZINC000003830453    0.0800
36     H36    -1.7611   -5.5039   -2.2763 H        1 ZINC000003830453    0.4300
37     H37    -5.6320  -10.7202   -0.7745 H        1 ZINC000003830453    0.1000
38     H38    -6.5639   -9.6501   -1.8491 H        1 ZINC000003830453    0.0500
39     H39    -5.3639  -10.7726   -2.5334 H        1 ZINC000003830453    0.0500
40     H40    -5.2747   -7.0722   -4.9197 H        1 ZINC000003830453    0.1900
41     H41    -1.8231   -3.1658   -6.1163 H        1 ZINC000003830453    0.4200
42     H42    -0.9642   -3.5232   -4.7172 H        1 ZINC000003830453    0.4200
43     H43     1.0170   -2.1529   -2.9623 H        1 ZINC000003830453    0.1200
44     H44     2.1470   -2.7904   -1.7537 H        1 ZINC000003830453    0.0900
@<TRIPOS>BOND
1     1     2     1
2     1     31    1
3     1     32    1
4     1     33    1
5     2     3     1
6     3     4     1
7     3     34    1
8     3     35    1
9     4     30    1
10    4     5     2
11    5     6     1
12    5     9     1
13    6     7     ar
14    6     8     ar
15    9     27    1
16    9     10    am
17    10    11    2
18    10    12    1
19    12    13    1
20    12    14    1
21    12    27    1
22    14    15    am
23    14    36    1
24    15    16    2
25    15    17    1
26    17    18    2
27    17    21    1
28    18    19    1
29    19    20    1
30    20    37    1
31    20    38    1
32    20    39    1
33    21    26    1
34    21    22    2
35    22    23    1
36    22    40    1
37    23    24    1
38    24    25    1
39    24    26    2
40    25    41    1
41    25    42    1
42    27    28    1
43    27    29    1
44    29    30    1
45    30    43    1
46    30    44    1
@<TRIPOS>SUBSTRUCTURE
1   ZINC000003830453 1     RESIDUE    1   A     ZIN   1
