@<TRIPOS>MOLECULE
ZINC000003830990
26    26    1     0     0
SMALL
USER_CHARGES
@<TRIPOS>ATOM
1      C1     -0.0187    1.5258    0.0104 C.3      1 ZINC000003830990   -0.1500
2      C2      0.0021   -0.0041    0.0020 C.3      1 ZINC000003830990   -0.1400
3      C3      0.7182   -0.4975   -1.2568 C.3      1 ZINC000003830990    0.1400
4      H4      0.2444   -0.0644   -2.1377 H        1 ZINC000003830990    0.1200
5      C5      0.6316   -2.0003   -1.3275 C.2      1 ZINC000003830990    0.5100
6      N6     -0.5721   -2.6043   -1.3798 N.am     1 ZINC000003830990   -0.8500
7      O7      1.6452   -2.6663   -1.3373 O.2      1 ZINC000003830990   -0.5200
8      N8      2.1249   -0.0911   -1.2094 N.am     1 ZINC000003830990   -0.6100
9      C9      2.7713    0.7728   -2.2043 C.3      1 ZINC000003830990    0.1000
10     C10     4.0707    1.2721   -1.5345 C.3      1 ZINC000003830990   -0.1300
11     C11     4.3492    0.1481   -0.5098 C.3      1 ZINC000003830990   -0.1600
12     C12     2.9880   -0.4568   -0.2459 C.2      1 ZINC000003830990    0.5300
13     O13     2.7167   -1.1735    0.6941 O.2      1 ZINC000003830990   -0.5200
14     H14     1.0039    1.9031    0.0027 H        1 ZINC000003830990    0.0600
15     H15    -0.5459    1.8868   -0.8726 H        1 ZINC000003830990    0.0600
16     H16    -0.5289    1.8773    0.9072 H        1 ZINC000003830990    0.0600
17     H17     0.5293   -0.3651    0.8851 H        1 ZINC000003830990    0.0900
18     H18    -1.0205   -0.3814    0.0098 H        1 ZINC000003830990    0.0800
19     H19    -1.3827   -2.0716   -1.3720 H        1 ZINC000003830990    0.4000
20     H20    -0.6278   -3.5716   -1.4254 H        1 ZINC000003830990    0.4000
21     H21     3.0053    0.2030   -3.1035 H        1 ZINC000003830990    0.0700
22     H22     2.1249    1.6158   -2.4486 H        1 ZINC000003830990    0.0800
23     H23     4.8800    1.3471   -2.2608 H        1 ZINC000003830990    0.0900
24     H24     3.9092    2.2262   -1.0327 H        1 ZINC000003830990    0.0800
25     H25     5.0255   -0.5947   -0.9328 H        1 ZINC000003830990    0.1100
26     H26     4.7636    0.5635    0.4088 H        1 ZINC000003830990    0.1000
@<TRIPOS>BOND
1     1     2     1
2     1     14    1
3     1     15    1
4     1     16    1
5     2     3     1
6     2     17    1
7     2     18    1
8     3     4     1
9     3     5     1
10    3     8     1
11    5     6     am
12    5     7     2
13    6     19    1
14    6     20    1
15    8     12    am
16    8     9     1
17    9     10    1
18    9     21    1
19    9     22    1
20    10    11    1
21    10    23    1
22    10    24    1
23    11    12    1
24    11    25    1
25    11    26    1
26    12    13    2
@<TRIPOS>SUBSTRUCTURE
1   ZINC000003830990 1     RESIDUE    1   A     ZIN   1
