@<TRIPOS>MOLECULE
ZINC000000013156
24    25    1     0     0
SMALL
USER_CHARGES
@<TRIPOS>ATOM
1      N1      0.0420    1.3433    0.4345 N.pl3    1 ZINC000000013156   -0.7500
2      C2      0.0317   -0.0224    0.2145 C.ar     1 ZINC000000013156    0.5200
3      N3     -1.0975   -0.7169    0.3074 N.ar     1 ZINC000000013156   -0.5500
4      C4     -1.0775   -2.0264    0.0905 C.ar     1 ZINC000000013156    0.6400
5      N5     -2.2528   -2.7508    0.1864 N.pl3    1 ZINC000000013156   -0.7700
6      N6      0.0517   -2.6516   -0.2174 N.ar     1 ZINC000000013156   -0.4200
7      H7      0.0357   -3.6092   -0.3707 H        1 ZINC000000013156    0.4700
8      N8      1.1676   -2.0183   -0.3178 N.ar     1 ZINC000000013156   -0.1100
9      C9      1.2171   -0.7073   -0.1189 C.ar     1 ZINC000000013156    0.0900
10     C10     2.5013    0.0235   -0.2347 C.ar     1 ZINC000000013156   -0.0600
11     C11     2.5828    1.1756   -1.0152 C.ar     1 ZINC000000013156   -0.0900
12     C12     3.7811    1.8525   -1.1199 C.ar     1 ZINC000000013156   -0.0900
13     C13     4.9010    1.3905   -0.4527 C.ar     1 ZINC000000013156   -0.0600
14     C14     4.8280    0.2468    0.3241 C.ar     1 ZINC000000013156   -0.0300
15     Cl15    6.2387   -0.3264    1.1577 Cl       1 ZINC000000013156   -0.0200
16     C16     3.6318   -0.4357    0.4418 C.ar     1 ZINC000000013156    0.0100
17     Cl17    3.5403   -1.8695    1.4162 Cl       1 ZINC000000013156   -0.0200
18     H18     0.8842    1.8239    0.4612 H        1 ZINC000000013156    0.4400
19     H19    -0.7931    1.8210    0.5581 H        1 ZINC000000013156    0.4400
20     H20    -3.0826   -2.3013    0.4107 H        1 ZINC000000013156    0.4500
21     H21    -2.2467   -3.7080    0.0294 H        1 ZINC000000013156    0.4400
22     H22     1.7097    1.5377   -1.5376 H        1 ZINC000000013156    0.1500
23     H23     3.8444    2.7451   -1.7246 H        1 ZINC000000013156    0.1600
24     H24     5.8362    1.9238   -0.5382 H        1 ZINC000000013156    0.1600
@<TRIPOS>BOND
1     1     2     1
2     1     18    1
3     1     19    1
4     2     9     ar
5     2     3     ar
6     3     4     ar
7     4     5     1
8     4     6     ar
9     5     20    1
10    5     21    1
11    6     7     1
12    6     8     ar
13    8     9     ar
14    9     10    1
15    10    16    ar
16    10    11    ar
17    11    12    ar
18    11    22    1
19    12    13    ar
20    12    23    1
21    13    14    ar
22    13    24    1
23    14    15    1
24    14    16    ar
25    16    17    1
@<TRIPOS>SUBSTRUCTURE
1   ZINC000000013156 1     RESIDUE    1   A     ZIN   1
