@<TRIPOS>MOLECULE
ZINC000051951647
50    52    1     0     0
SMALL
USER_CHARGES
@<TRIPOS>ATOM
1      C1     -1.8434    1.1530   -0.6746 C.3      1 ZINC000051951647   -0.1100
2      C2     -1.4023   -0.2806   -0.5290 C.2      1 ZINC000051951647    0.1100
3      C3     -0.9479   -1.0523   -1.5289 C.2      1 ZINC000051951647   -0.2000
4      C4     -0.7899   -0.6485   -2.9722 C.3      1 ZINC000051951647   -0.0600
5      C5      0.6096   -0.0696   -3.1896 C.3      1 ZINC000051951647   -0.0100
6      N6      0.7635    0.3241   -4.5964 N.4      1 ZINC000051951647   -0.5100
7      H7      0.6384   -0.4841   -5.1874 H        1 ZINC000051951647    0.4300
8      H8      0.0716    1.0208   -4.8284 H        1 ZINC000051951647    0.4300
9      C9      2.1072    0.8799   -4.8051 C.3      1 ZINC000051951647    0.0500
10     C10     2.2652    1.2837   -6.2484 C.ar     1 ZINC000051951647   -0.1600
11     C11     2.7450    0.3698   -7.1704 C.ar     1 ZINC000051951647   -0.1000
12     C12     2.8924    0.7317   -8.4927 C.ar     1 ZINC000051951647   -0.1000
13     C13     2.5556    2.0260   -8.9013 C.ar     1 ZINC000051951647   -0.0400
14     C14     2.7095    2.4203  -10.3112 C.2      1 ZINC000051951647   -0.0300
15     C15     3.2291    3.6249  -10.6213 C.2      1 ZINC000051951647   -0.1900
16     C16     3.8632    4.4384   -9.5819 C.2      1 ZINC000051951647    0.5500
17     O17     4.0389    3.9759   -8.4700 O.2      1 ZINC000051951647   -0.5200
18     N18     4.2521    5.6992   -9.8565 N.am     1 ZINC000051951647   -0.5900
19     O19     4.8652    6.4858   -8.8514 O.3      1 ZINC000051951647   -0.3200
20     C20     2.0714    2.9436   -7.9637 C.ar     1 ZINC000051951647   -0.0400
21     C21     1.9244    2.5648   -6.6460 C.ar     1 ZINC000051951647   -0.1000
22     C22    -0.6342   -2.3614   -0.9510 C.ar     1 ZINC000051951647   -0.1000
23     C23    -0.1372   -3.5576   -1.4711 C.ar     1 ZINC000051951647   -0.0800
24     C24     0.0489   -4.6308   -0.6457 C.ar     1 ZINC000051951647   -0.1300
25     C25    -0.2528   -4.5412    0.7060 C.ar     1 ZINC000051951647   -0.0900
26     C26    -0.7444   -3.3700    1.2403 C.ar     1 ZINC000051951647   -0.1200
27     C27    -0.9411   -2.2651    0.4187 C.ar     1 ZINC000051951647    0.1000
28     N28    -1.4003   -0.9866    0.6431 N.pl3    1 ZINC000051951647   -0.5900
29     H29    -0.9896    1.8131   -0.5216 H        1 ZINC000051951647    0.0800
30     H30    -2.2484    1.3088   -1.6745 H        1 ZINC000051951647    0.0900
31     H31    -2.6111    1.3741    0.0669 H        1 ZINC000051951647    0.0800
32     H32    -0.9252   -1.5215   -3.6107 H        1 ZINC000051951647    0.0900
33     H33    -1.5374    0.1042   -3.2228 H        1 ZINC000051951647    0.0900
34     H34     0.7448    0.8034   -2.5511 H        1 ZINC000051951647    0.1300
35     H35     1.3571   -0.8223   -2.9390 H        1 ZINC000051951647    0.1300
36     H36     2.2425    1.7529   -4.1667 H        1 ZINC000051951647    0.1400
37     H37     2.8547    0.1272   -4.5545 H        1 ZINC000051951647    0.1400
38     H38     3.0051   -0.6293   -6.8532 H        1 ZINC000051951647    0.1300
39     H39     3.2673    0.0176   -9.2110 H        1 ZINC000051951647    0.1400
40     H40     2.4060    1.7445  -11.0971 H        1 ZINC000051951647    0.1500
41     H41     3.1778    3.9900  -11.6364 H        1 ZINC000051951647    0.1500
42     H42     4.1120    6.0678  -10.7428 H        1 ZINC000051951647    0.4100
43     H43     5.1090    7.3753   -9.1421 H        1 ZINC000051951647    0.3900
44     H44     1.8092    3.9450   -8.2717 H        1 ZINC000051951647    0.1200
45     H45     1.5506    3.2723   -5.9207 H        1 ZINC000051951647    0.1300
46     H46     0.0991   -3.6349   -2.5221 H        1 ZINC000051951647    0.1200
47     H47     0.4334   -5.5562   -1.0485 H        1 ZINC000051951647    0.1300
48     H48    -0.1011   -5.3981    1.3456 H        1 ZINC000051951647    0.1300
49     H49    -0.9765   -3.3104    2.2934 H        1 ZINC000051951647    0.1200
50     H50    -1.6823   -0.6388    1.5036 H        1 ZINC000051951647    0.4200
@<TRIPOS>BOND
1     1     2     1
2     1     29    1
3     1     30    1
4     1     31    1
5     2     28    1
6     2     3     2
7     3     4     1
8     3     22    1
9     4     5     1
10    4     32    1
11    4     33    1
12    5     6     1
13    5     34    1
14    5     35    1
15    6     7     1
16    6     8     1
17    6     9     1
18    9     10    1
19    9     36    1
20    9     37    1
21    10    21    ar
22    10    11    ar
23    11    12    ar
24    11    38    1
25    12    13    ar
26    12    39    1
27    13    14    1
28    13    20    ar
29    14    15    2
30    14    40    1
31    15    16    1
32    15    41    1
33    16    17    2
34    16    18    am
35    18    19    1
36    18    42    1
37    19    43    1
38    20    21    ar
39    20    44    1
40    21    45    1
41    22    27    ar
42    22    23    ar
43    23    24    ar
44    23    46    1
45    24    25    ar
46    24    47    1
47    25    26    ar
48    25    48    1
49    26    27    ar
50    26    49    1
51    27    28    1
52    28    50    1
@<TRIPOS>SUBSTRUCTURE
1   ZINC000051951647 1     RESIDUE    1   A     ZIN   1
