@<TRIPOS>MOLECULE
ZINC000100070954
67    69    1     0     0
SMALL
USER_CHARGES
@<TRIPOS>ATOM
1      C1     -0.0187    1.5258    0.0104 C.3      1 ZINC000100070954   -0.1500
2      C2      0.0021   -0.0041    0.0020 C.3      1 ZINC000100070954   -0.0600
3      C3     -1.4117   -0.5257    0.0127 C.2      1 ZINC000100070954   -0.1800
4      C4     -2.1048   -0.8785   -1.0661 C.2      1 ZINC000100070954   -0.0700
5      C5     -1.6263   -0.8303   -2.4943 C.3      1 ZINC000100070954   -0.1000
6      C6     -3.4628   -1.3376   -0.5881 C.3      1 ZINC000100070954    0.1200
7      N7     -3.4408   -1.1985    0.8739 N.am     1 ZINC000100070954   -0.5800
8      C8     -4.4476   -1.4950    1.7194 C.2      1 ZINC000100070954    0.7200
9      O9     -5.4995   -1.9226    1.2856 O.2      1 ZINC000100070954   -0.5500
10     N10    -4.2882   -1.3173    3.0458 N.am     1 ZINC000100070954   -0.7200
11     C11    -5.3827   -1.6396    3.9648 C.3      1 ZINC000100070954    0.1400
12     C12    -4.9445   -1.3490    5.4016 C.3      1 ZINC000100070954   -0.0900
13     C13    -6.0703   -1.6805    6.3469 C.ar     1 ZINC000100070954   -0.0500
14     C14    -7.0035   -0.7151    6.6759 C.ar     1 ZINC000100070954   -0.1400
15     C15    -8.0362   -1.0192    7.5430 C.ar     1 ZINC000100070954   -0.0200
16     C16    -8.1360   -2.2887    8.0808 C.ar     1 ZINC000100070954   -0.6200
17     S17    -9.4520   -2.6762    9.1866 S.o2     1 ZINC000100070954    2.6600
18     O18    -9.0084   -3.7768    9.9683 O.2      1 ZINC000100070954   -1.0200
19     O19    -9.8779   -1.4436    9.7510 O.2      1 ZINC000100070954   -1.0200
20     N20   -10.7145   -3.2320    8.2704 N.pl3    1 ZINC000100070954   -1.1500
21     C21   -11.8652   -3.6054    8.8645 C.2      1 ZINC000100070954    0.7200
22     O22   -11.9763   -3.5342   10.0732 O.2      1 ZINC000100070954   -0.6800
23     N23   -12.8927   -4.0578    8.1188 N.am     1 ZINC000100070954   -0.7300
24     C24   -14.1435   -4.4637    8.7646 C.3      1 ZINC000100070954    0.1600
25     H25   -13.9225   -4.9231    9.7281 H        1 ZINC000100070954    0.0800
26     C26   -15.0301   -3.2349    8.9768 C.3      1 ZINC000100070954   -0.1300
27     C27   -15.3402   -2.5902    7.6244 C.3      1 ZINC000100070954   -0.1100
28     C28   -16.0701   -3.5981    6.7343 C.3      1 ZINC000100070954   -0.0900
29     H29   -17.0007   -3.9001    7.2148 H        1 ZINC000100070954    0.0600
30     C30   -16.3803   -2.9533    5.3819 C.3      1 ZINC000100070954   -0.1500
31     C31   -15.1835   -4.8268    6.5221 C.3      1 ZINC000100070954   -0.1100
32     C32   -14.8733   -5.4716    7.8745 C.3      1 ZINC000100070954   -0.1200
33     C33    -7.2036   -3.2544    7.7508 C.ar     1 ZINC000100070954   -0.0200
34     C34    -6.1731   -2.9515    6.8807 C.ar     1 ZINC000100070954   -0.1400
35     C35    -2.2268   -0.7262    1.2140 C.2      1 ZINC000100070954    0.5500
36     O36    -1.8631   -0.4920    2.3502 O.2      1 ZINC000100070954   -0.5000
37     H37     1.0039    1.9031    0.0027 H        1 ZINC000100070954    0.0600
38     H38    -0.5459    1.8868   -0.8726 H        1 ZINC000100070954    0.0500
39     H39    -0.5289    1.8773    0.9072 H        1 ZINC000100070954    0.0600
40     H40     0.5123   -0.3556   -0.8948 H        1 ZINC000100070954    0.0800
41     H41     0.5293   -0.3651    0.8851 H        1 ZINC000100070954    0.0800
42     H42    -1.1564   -1.7794   -2.7523 H        1 ZINC000100070954    0.0900
43     H43    -2.4743   -0.6530   -3.1558 H        1 ZINC000100070954    0.0800
44     H44    -0.9021   -0.0236   -2.6078 H        1 ZINC000100070954    0.0800
45     H45    -4.2440   -0.7079   -1.0140 H        1 ZINC000100070954    0.1100
46     H46    -3.6262   -2.3793   -0.8643 H        1 ZINC000100070954    0.1100
47     H47    -3.4488   -0.9760    3.3920 H        1 ZINC000100070954    0.4100
48     H48    -6.2534   -1.0311    3.7204 H        1 ZINC000100070954    0.0800
49     H49    -5.6384   -2.6948    3.8694 H        1 ZINC000100070954    0.0800
50     H50    -4.0737   -1.9574    5.6460 H        1 ZINC000100070954    0.0800
51     H51    -4.6887   -0.2937    5.4971 H        1 ZINC000100070954    0.0800
52     H52    -6.9255    0.2767    6.2557 H        1 ZINC000100070954    0.1300
53     H53    -8.7649   -0.2648    7.8006 H        1 ZINC000100070954    0.1400
54     H54   -12.8041   -4.1145    7.1545 H        1 ZINC000100070954    0.3900
55     H55   -15.9606   -3.5370    9.4573 H        1 ZINC000100070954    0.0600
56     H56   -14.5101   -2.5169    9.6110 H        1 ZINC000100070954    0.0700
57     H57   -15.9719   -1.7148    7.7756 H        1 ZINC000100070954    0.0500
58     H58   -14.4096   -2.2881    7.1439 H        1 ZINC000100070954    0.0700
59     H59   -15.4497   -2.6513    4.9014 H        1 ZINC000100070954    0.0500
60     H60   -16.9002   -3.6714    4.7478 H        1 ZINC000100070954    0.0500
61     H61   -17.0119   -2.0779    5.5331 H        1 ZINC000100070954    0.0500
62     H62   -15.7034   -5.5449    5.8879 H        1 ZINC000100070954    0.0600
63     H63   -14.2529   -4.5248    6.0416 H        1 ZINC000100070954    0.0700
64     H64   -14.2417   -6.3470    7.7233 H        1 ZINC000100070954    0.0700
65     H65   -15.8039   -5.7736    8.3550 H        1 ZINC000100070954    0.0700
66     H66    -7.2817   -4.2464    8.1707 H        1 ZINC000100070954    0.1400
67     H67    -5.4446   -3.7059    6.6228 H        1 ZINC000100070954    0.1300
@<TRIPOS>BOND
1     1     2     1
2     1     37    1
3     1     38    1
4     1     39    1
5     2     3     1
6     2     40    1
7     2     41    1
8     3     35    1
9     3     4     2
10    4     5     1
11    4     6     1
12    5     42    1
13    5     43    1
14    5     44    1
15    6     7     1
16    6     45    1
17    6     46    1
18    7     8     am
19    7     35    am
20    8     9     2
21    8     10    am
22    10    11    1
23    10    47    1
24    11    12    1
25    11    48    1
26    11    49    1
27    12    13    1
28    12    50    1
29    12    51    1
30    13    34    ar
31    13    14    ar
32    14    15    ar
33    14    52    1
34    15    16    ar
35    15    53    1
36    16    17    1
37    16    33    ar
38    17    18    2
39    17    19    2
40    17    20    1
41    20    21    1
42    21    22    2
43    21    23    am
44    23    24    1
45    23    54    1
46    24    25    1
47    24    32    1
48    24    26    1
49    26    27    1
50    26    55    1
51    26    56    1
52    27    28    1
53    27    57    1
54    27    58    1
55    28    29    1
56    28    30    1
57    28    31    1
58    30    59    1
59    30    60    1
60    30    61    1
61    31    32    1
62    31    62    1
63    31    63    1
64    32    64    1
65    32    65    1
66    33    34    ar
67    33    66    1
68    34    67    1
69    35    36    2
@<TRIPOS>SUBSTRUCTURE
1   ZINC000100070954 1     RESIDUE    1   A     ZIN   1
