@<TRIPOS>MOLECULE
ZINC000035328014
58    62    1     0     0
SMALL
USER_CHARGES
@<TRIPOS>ATOM
1      C1     -0.7172   -0.5522    0.3768 C.2      1 ZINC000035328014   -0.0700
2      C2     -0.4279   -1.7977    0.7425 C.2      1 ZINC000035328014   -0.2300
3      C3      0.9563   -2.2877    0.6533 C.2      1 ZINC000035328014    0.5500
4      O4      1.8183   -1.5879    0.1571 O.2      1 ZINC000035328014   -0.5400
5      N5      1.2692   -3.5121    1.1216 N.am     1 ZINC000035328014   -0.6100
6      C6      0.2202   -4.4167    1.6117 C.3      1 ZINC000035328014    0.1000
7      C7      0.5853   -4.8740    3.0274 C.3      1 ZINC000035328014   -0.1300
8      C8      1.9880   -5.4859    3.0158 C.3      1 ZINC000035328014   -0.1300
9      C9      3.0033   -4.4302    2.5723 C.3      1 ZINC000035328014    0.1400
10     H10     2.9626   -3.5785    3.2513 H        1 ZINC000035328014    0.1300
11     N11     4.3495   -5.0077    2.5924 N.pl3    1 ZINC000035328014   -0.3300
12     N12     4.7677   -6.1089    1.8378 N.2      1 ZINC000035328014   -0.2000
13     C13     6.0293   -6.3681    2.0882 C.2      1 ZINC000035328014    0.2100
14     C14     6.8380   -7.4557    1.4880 C.ar     1 ZINC000035328014   -0.0600
15     C15     6.7872   -7.6874    0.1139 C.ar     1 ZINC000035328014   -0.0600
16     C16     7.5407   -8.6999   -0.4415 C.ar     1 ZINC000035328014   -0.1200
17     C17     8.3491   -9.4888    0.3662 C.ar     1 ZINC000035328014    0.1200
18     O18     9.0903  -10.4857   -0.1839 O.3      1 ZINC000035328014   -0.2600
19     C19    10.2389  -10.1468   -0.8259 C.ar     1 ZINC000035328014    0.1100
20     C20    10.6557   -8.8235   -0.8526 C.ar     1 ZINC000035328014   -0.2000
21     C21    11.8240   -8.4818   -1.5056 C.ar     1 ZINC000035328014   -0.0800
22     C22    12.5777   -9.4568   -2.1326 C.ar     1 ZINC000035328014   -0.1400
23     C23    12.1646  -10.7761   -2.1075 C.ar     1 ZINC000035328014   -0.0800
24     C24    11.0001  -11.1242   -1.4511 C.ar     1 ZINC000035328014   -0.1400
25     C25     8.4019   -9.2607    1.7350 C.ar     1 ZINC000035328014   -0.1200
26     C26     7.6556   -8.2457    2.2955 C.ar     1 ZINC000035328014   -0.1000
27     C27     6.4906   -5.3855    3.0686 C.ar     1 ZINC000035328014   -0.3000
28     C28     7.7061   -5.1326    3.7251 C.ar     1 ZINC000035328014    0.5600
29     N29     8.8170   -5.9179    3.4854 N.pl3    1 ZINC000035328014   -0.8000
30     N30     7.7609   -4.1181    4.5828 N.ar     1 ZINC000035328014   -0.5700
31     H31     8.5924   -3.9287    5.0450 H        1 ZINC000035328014    0.4500
32     C32     6.7019   -3.3634    4.8156 C.ar     1 ZINC000035328014    0.4200
33     N33     5.5439   -3.5628    4.2251 N.ar     1 ZINC000035328014   -0.4900
34     C34     5.3907   -4.5517    3.3448 C.ar     1 ZINC000035328014    0.3900
35     C35     2.6650   -3.9701    1.1461 C.3      1 ZINC000035328014    0.1100
36     H36     0.0641    0.0995    0.0144 H        1 ZINC000035328014    0.1200
37     H37    -1.7342   -0.1939    0.4381 H        1 ZINC000035328014    0.1200
38     H38    -1.2091   -2.4494    1.1049 H        1 ZINC000035328014    0.1300
39     H39    -0.7348   -3.8917    1.6321 H        1 ZINC000035328014    0.1000
40     H40     0.1490   -5.2836    0.9547 H        1 ZINC000035328014    0.0800
41     H41     0.5674   -4.0181    3.7021 H        1 ZINC000035328014    0.0800
42     H42    -0.1342   -5.6196    3.3658 H        1 ZINC000035328014    0.1000
43     H43     2.2404   -5.8345    4.0172 H        1 ZINC000035328014    0.0800
44     H44     2.0117   -6.3265    2.3222 H        1 ZINC000035328014    0.0900
45     H45     6.1581   -7.0746   -0.5147 H        1 ZINC000035328014    0.1400
46     H46     7.5017   -8.8798   -1.5057 H        1 ZINC000035328014    0.1500
47     H47    10.0670   -8.0615   -0.3637 H        1 ZINC000035328014    0.1200
48     H48    12.1489   -7.4520   -1.5267 H        1 ZINC000035328014    0.1300
49     H49    13.4905   -9.1874   -2.6432 H        1 ZINC000035328014    0.1300
50     H50    12.7549  -11.5358   -2.5984 H        1 ZINC000035328014    0.1400
51     H51    10.6780  -12.1548   -1.4314 H        1 ZINC000035328014    0.1400
52     H52     9.0313   -9.8762    2.3606 H        1 ZINC000035328014    0.1500
53     H53     7.6973   -8.0685    3.3600 H        1 ZINC000035328014    0.1400
54     H54     8.8430   -6.4969    2.7076 H        1 ZINC000035328014    0.4400
55     H55     9.5711   -5.8904    4.0950 H        1 ZINC000035328014    0.4300
56     H56     6.7906   -2.5497    5.5201 H        1 ZINC000035328014    0.2600
57     H57     2.7946   -4.8017    0.4535 H        1 ZINC000035328014    0.0900
58     H58     3.3228   -3.1488    0.8615 H        1 ZINC000035328014    0.1000
@<TRIPOS>BOND
1     1     2     2
2     1     36    1
3     1     37    1
4     2     3     1
5     2     38    1
6     3     4     2
7     3     5     am
8     5     35    1
9     5     6     1
10    6     7     1
11    6     39    1
12    6     40    1
13    7     8     1
14    7     41    1
15    7     42    1
16    8     9     1
17    8     43    1
18    8     44    1
19    9     10    1
20    9     11    1
21    9     35    1
22    11    34    1
23    11    12    1
24    12    13    2
25    13    14    1
26    13    27    1
27    14    26    ar
28    14    15    ar
29    15    16    ar
30    15    45    1
31    16    17    ar
32    16    46    1
33    17    18    1
34    17    25    ar
35    18    19    1
36    19    24    ar
37    19    20    ar
38    20    21    ar
39    20    47    1
40    21    22    ar
41    21    48    1
42    22    23    ar
43    22    49    1
44    23    24    ar
45    23    50    1
46    24    51    1
47    25    26    ar
48    25    52    1
49    26    53    1
50    27    34    ar
51    27    28    ar
52    28    29    1
53    28    30    ar
54    29    54    1
55    29    55    1
56    30    31    1
57    30    32    ar
58    32    33    ar
59    32    56    1
60    33    34    ar
61    35    57    1
62    35    58    1
@<TRIPOS>SUBSTRUCTURE
1   ZINC000035328014 1     RESIDUE    1   A     ZIN   1
