@<TRIPOS>MOLECULE
ZINC000002019953
39    39    1     0     0
SMALL
USER_CHARGES
@<TRIPOS>ATOM
1      C1     -0.2191    0.9800   -2.0505 C.3      1 ZINC000002019953   -0.1500
2      C2     -0.4369   -0.5343   -2.0255 C.3      1 ZINC000002019953   -0.1200
3      C3     -1.6962   -0.8551   -1.2180 C.3      1 ZINC000002019953    0.0600
4      N4     -1.9053   -2.3090   -1.1941 N.3      1 ZINC000002019953   -0.6700
5      C5     -3.1085   -2.6552   -0.4257 C.3      1 ZINC000002019953    0.0700
6      H6     -3.2181   -1.9632    0.4092 H        1 ZINC000002019953    0.1100
7      C7     -4.3375   -2.5595   -1.3320 C.3      1 ZINC000002019953   -0.1800
8      C8     -2.9810   -4.0615    0.1008 C.2      1 ZINC000002019953    0.5200
9      O9     -1.9857   -4.7113   -0.1403 O.2      1 ZINC000002019953   -0.4900
10     N10    -3.9729   -4.5970    0.8396 N.am     1 ZINC000002019953   -0.6600
11     C11    -3.9092   -5.9355    1.2273 C.2      1 ZINC000002019953    0.2400
12     C12    -4.9074   -6.8475    0.9750 C.2      1 ZINC000002019953   -0.3100
13     C13    -6.1201   -6.5721    0.3005 C.2      1 ZINC000002019953    0.5400
14     O14    -6.2998   -5.4806   -0.2071 O.2      1 ZINC000002019953   -0.5000
15     O15    -7.0778   -7.5198    0.2199 O.3      1 ZINC000002019953   -0.3500
16     C16    -8.2768   -7.1729   -0.4760 C.3      1 ZINC000002019953    0.0400
17     S17    -4.4334   -8.4107    1.6251 S.3      1 ZINC000002019953    0.2800
18     C18    -2.9525   -7.7824    2.1920 C.2      1 ZINC000002019953   -0.2200
19     C19    -2.8345   -6.4845    1.8993 C.2      1 ZINC000002019953   -0.1100
20     C20    -1.6224   -5.6757    2.2836 C.3      1 ZINC000002019953   -0.0800
21     H21     0.6781    1.2086   -2.6257 H        1 ZINC000002019953    0.0600
22     H22    -1.0799    1.4633   -2.5125 H        1 ZINC000002019953    0.0500
23     H23    -0.1003    1.3468   -1.0309 H        1 ZINC000002019953    0.0600
24     H24    -0.5557   -0.9011   -3.0450 H        1 ZINC000002019953    0.0600
25     H25     0.4239   -1.0176   -1.5634 H        1 ZINC000002019953    0.0700
26     H26    -1.5774   -0.4883   -0.1985 H        1 ZINC000002019953    0.0700
27     H27    -2.5570   -0.3718   -1.6801 H        1 ZINC000002019953    0.0300
28     H28    -1.9540   -2.6828   -2.1300 H        1 ZINC000002019953    0.3500
29     H29    -5.2303   -2.8164   -0.7619 H        1 ZINC000002019953    0.0700
30     H30    -4.4298   -1.5423   -1.7129 H        1 ZINC000002019953    0.0700
31     H31    -4.2280   -3.2515   -2.1670 H        1 ZINC000002019953    0.0600
32     H32    -4.7311   -4.0517    1.1017 H        1 ZINC000002019953    0.4200
33     H33    -8.9607   -8.0216   -0.4668 H        1 ZINC000002019953    0.1000
34     H34    -8.7481   -6.3212    0.0145 H        1 ZINC000002019953    0.0600
35     H35    -8.0362   -6.9113   -1.5064 H        1 ZINC000002019953    0.0600
36     H36    -2.2052   -8.3601    2.7157 H        1 ZINC000002019953    0.1800
37     H37    -0.8358   -5.8263    1.5441 H        1 ZINC000002019953    0.0800
38     H38    -1.8877   -4.6192    2.3218 H        1 ZINC000002019953    0.0600
39     H39    -1.2669   -5.9968    3.2627 H        1 ZINC000002019953    0.0600
@<TRIPOS>BOND
1     1     2     1
2     1     21    1
3     1     22    1
4     1     23    1
5     2     3     1
6     2     24    1
7     2     25    1
8     3     4     1
9     3     26    1
10    3     27    1
11    4     5     1
12    4     28    1
13    5     6     1
14    5     7     1
15    5     8     1
16    7     29    1
17    7     30    1
18    7     31    1
19    8     9     2
20    8     10    am
21    10    11    1
22    10    32    1
23    11    19    1
24    11    12    2
25    12    13    1
26    12    17    1
27    13    14    2
28    13    15    1
29    15    16    1
30    16    33    1
31    16    34    1
32    16    35    1
33    17    18    1
34    18    19    2
35    18    36    1
36    19    20    1
37    20    37    1
38    20    38    1
39    20    39    1
@<TRIPOS>SUBSTRUCTURE
1   ZINC000002019953 1     RESIDUE    1   A     ZIN   1
