@<TRIPOS>MOLECULE
ZINC000013587680
57    58    1     0     0
SMALL
USER_CHARGES
@<TRIPOS>ATOM
1      C1     -0.0179    1.4678    0.0101 C.3      1 ZINC000013587680   -0.0400
2      C2      0.0021   -0.0041    0.0020 C.1      1 ZINC000013587680   -0.2000
3      C3      0.0180   -1.1779   -0.0044 C.1      1 ZINC000013587680   -0.1800
4      C4      0.0380   -2.6498   -0.0125 C.3      1 ZINC000013587680    0.0000
5      C5     -1.3974   -3.1794   -0.0017 C.3      1 ZINC000013587680   -0.1100
6      H6     -1.9503   -2.7476   -0.8359 H        1 ZINC000013587680    0.0800
7      C7     -2.0744   -2.7910    1.3143 C.3      1 ZINC000013587680   -0.1500
8      C8     -1.3798   -4.7034   -0.1358 C.3      1 ZINC000013587680    0.1400
9      H9     -0.8269   -5.1351    0.6985 H        1 ZINC000013587680    0.1100
10     O10    -0.7475   -5.0661   -1.3649 O.3      1 ZINC000013587680   -0.5600
11     C11    -2.7936   -5.2250   -0.1251 C.2      1 ZINC000013587680   -0.2000
12     C12    -3.2211   -5.9786   -1.1076 C.2      1 ZINC000013587680   -0.1300
13     C13    -4.6350   -6.5002   -1.0969 C.3      1 ZINC000013587680   -0.0500
14     H14    -5.1594   -6.1446   -0.2100 H        1 ZINC000013587680    0.0900
15     C15    -5.3767   -6.0488   -2.3686 C.3      1 ZINC000013587680    0.1100
16     H16    -4.6761   -5.9343   -3.1957 H        1 ZINC000013587680    0.0600
17     O17    -6.0690   -4.8215   -2.1311 O.3      1 ZINC000013587680   -0.5600
18     C18    -6.3766   -7.1814   -2.6665 C.3      1 ZINC000013587680   -0.1500
19     C19    -5.7328   -8.4663   -2.1236 C.3      1 ZINC000013587680   -0.0900
20     H20    -5.3161   -9.0654   -2.9333 H        1 ZINC000013587680    0.0800
21     C21    -6.7772   -9.2665   -1.3292 C.3      1 ZINC000013587680   -0.0800
22     C22    -6.0955   -9.6838   -0.0410 C.2      1 ZINC000013587680   -0.1500
23     C23    -6.3314  -10.7591    0.6690 C.2      1 ZINC000013587680   -0.1300
24     C24    -7.3838  -11.7410    0.2223 C.3      1 ZINC000013587680   -0.0900
25     C25    -6.7648  -13.1355    0.1086 C.3      1 ZINC000013587680   -0.0900
26     C26    -7.8332  -14.1324   -0.3449 C.3      1 ZINC000013587680   -0.1800
27     C27    -7.2235  -15.5060   -0.4569 C.2      1 ZINC000013587680    0.4900
28     O28    -6.0437  -15.6722   -0.1981 O.co2    1 ZINC000013587680   -0.7000
29     O29    -7.9099  -16.4510   -0.8064 O.co2    1 ZINC000013587680   -0.7100
30     C30    -5.0830   -8.5942    0.2522 C.3      1 ZINC000013587680   -0.0800
31     C31    -4.6328   -8.0361   -1.1304 C.3      1 ZINC000013587680   -0.0800
32     H32    -3.6537   -8.4264   -1.4082 H        1 ZINC000013587680    0.0900
33     H33     1.0047    1.8451    0.0024 H        1 ZINC000013587680    0.0800
34     H34    -0.5451    1.8289   -0.8729 H        1 ZINC000013587680    0.0800
35     H35    -0.5281    1.8193    0.9069 H        1 ZINC000013587680    0.0800
36     H36     0.5481   -3.0013   -0.9093 H        1 ZINC000013587680    0.0900
37     H37     0.5651   -3.0109    0.8705 H        1 ZINC000013587680    0.0900
38     H38    -2.0870   -1.7052    1.4098 H        1 ZINC000013587680    0.0600
39     H39    -3.0970   -3.1683    1.3220 H        1 ZINC000013587680    0.0600
40     H40    -1.5215   -3.2227    2.1486 H        1 ZINC000013587680    0.0600
41     H41    -1.1870   -4.7155   -2.1517 H        1 ZINC000013587680    0.3700
42     H42    -3.4543   -4.9775    0.6926 H        1 ZINC000013587680    0.1200
43     H43    -2.5604   -6.2261   -1.9253 H        1 ZINC000013587680    0.1200
44     H44    -6.5546   -4.4890   -2.8983 H        1 ZINC000013587680    0.3800
45     H45    -7.3219   -6.9913   -2.1583 H        1 ZINC000013587680    0.0800
46     H46    -6.5378   -7.2671   -3.7411 H        1 ZINC000013587680    0.0700
47     H47    -7.6422   -8.6406   -1.1101 H        1 ZINC000013587680    0.0700
48     H48    -7.0839  -10.1471   -1.8936 H        1 ZINC000013587680    0.0700
49     H49    -5.7718  -10.9420    1.5744 H        1 ZINC000013587680    0.1100
50     H50    -8.1942  -11.7616    0.9510 H        1 ZINC000013587680    0.0700
51     H51    -7.7757  -11.4371   -0.7483 H        1 ZINC000013587680    0.0600
52     H52    -5.9544  -13.1150   -0.6201 H        1 ZINC000013587680    0.0600
53     H53    -6.3729  -13.4394    1.0793 H        1 ZINC000013587680    0.0600
54     H54    -8.6436  -14.1529    0.3838 H        1 ZINC000013587680    0.0500
55     H55    -8.2251  -13.8285   -1.3155 H        1 ZINC000013587680    0.0500
56     H56    -5.5418   -7.8070    0.8505 H        1 ZINC000013587680    0.0700
57     H57    -4.2235   -9.0120    0.7764 H        1 ZINC000013587680    0.0700
@<TRIPOS>BOND
1     1     2     1
2     1     33    1
3     1     34    1
4     1     35    1
5     2     3     3
6     3     4     1
7     4     5     1
8     4     36    1
9     4     37    1
10    5     6     1
11    5     7     1
12    5     8     1
13    7     38    1
14    7     39    1
15    7     40    1
16    8     9     1
17    8     10    1
18    8     11    1
19    10    41    1
20    11    12    2
21    11    42    1
22    12    13    1
23    12    43    1
24    13    14    1
25    13    31    1
26    13    15    1
27    15    16    1
28    15    17    1
29    15    18    1
30    17    44    1
31    18    19    1
32    18    45    1
33    18    46    1
34    19    20    1
35    19    31    1
36    19    21    1
37    21    22    1
38    21    47    1
39    21    48    1
40    22    23    2
41    22    30    1
42    23    24    1
43    23    49    1
44    24    25    1
45    24    50    1
46    24    51    1
47    25    26    1
48    25    52    1
49    25    53    1
50    26    27    1
51    26    54    1
52    26    55    1
53    27    28    ar
54    27    29    ar
55    30    31    1
56    30    56    1
57    30    57    1
58    31    32    1
@<TRIPOS>SUBSTRUCTURE
1   ZINC000013587680 1     RESIDUE    1   A     ZIN   1
