@<TRIPOS>MOLECULE
ZINC000002548959
24    26    1     0     0
SMALL
USER_CHARGES
@<TRIPOS>ATOM
1      C1     -0.0173    1.4248    0.0099 C.3      1 ZINC000002548959    0.0300
2      O2      0.0021   -0.0041    0.0020 O.3      1 ZINC000002548959   -0.3100
3      C3      0.6265   -0.6190    1.0426 C.ar     1 ZINC000002548959    0.0900
4      C4      1.9836   -0.9106    0.9644 C.ar     1 ZINC000002548959    0.0900
5      O5      2.9151   -0.7079    0.0089 O.3      1 ZINC000002548959   -0.1800
6      C6      4.1148   -1.1717    0.4013 C.2      1 ZINC000002548959    0.0200
7      C7      4.0293   -1.6994    1.6287 C.2      1 ZINC000002548959   -0.2000
8      C8      2.6276   -1.5474    2.0434 C.ar     1 ZINC000002548959   -0.1400
9      C9      1.9170   -1.8872    3.1869 C.ar     1 ZINC000002548959    0.0000
10     C10     0.5553   -1.5923    3.2600 C.ar     1 ZINC000002548959   -0.1600
11     C11    -0.0906   -0.9501    2.1844 C.ar     1 ZINC000002548959    0.1500
12     O12    -1.4116   -0.6699    2.2673 O.3      1 ZINC000002548959   -0.2600
13     C13    -2.1293   -0.9894    3.3546 C.2      1 ZINC000002548959    0.5100
14     O14    -3.3160   -0.7171    3.3826 O.2      1 ZINC000002548959   -0.4500
15     C15    -1.5460   -1.6331    4.4668 C.2      1 ZINC000002548959   -0.2400
16     C16    -0.2238   -1.9383    4.4532 C.2      1 ZINC000002548959    0.0000
17     H17     1.0053    1.8021    0.0021 H        1 ZINC000002548959    0.0500
18     H18    -0.5445    1.7859   -0.8732 H        1 ZINC000002548959    0.1000
19     H19    -0.5275    1.7763    0.9067 H        1 ZINC000002548959    0.0500
20     H20     5.0178   -1.1255   -0.1894 H        1 ZINC000002548959    0.2200
21     H21     4.8296   -2.1468    2.1995 H        1 ZINC000002548959    0.1700
22     H22     2.4138   -2.3757    4.0121 H        1 ZINC000002548959    0.1500
23     H23    -2.1493   -1.8776    5.3286 H        1 ZINC000002548959    0.1700
24     H24     0.2403   -2.4308    5.2949 H        1 ZINC000002548959    0.1600
@<TRIPOS>BOND
1     1     2     1
2     1     17    1
3     1     18    1
4     1     19    1
5     2     3     1
6     3     11    ar
7     3     4     ar
8     4     8     ar
9     4     5     1
10    5     6     1
11    6     7     2
12    6     20    1
13    7     8     1
14    7     21    1
15    8     9     ar
16    9     10    ar
17    9     22    1
18    10    16    1
19    10    11    ar
20    11    12    1
21    12    13    1
22    13    14    2
23    13    15    1
24    15    16    2
25    15    23    1
26    16    24    1
@<TRIPOS>SUBSTRUCTURE
1   ZINC000002548959 1     RESIDUE    1   A     ZIN   1
