@<TRIPOS>MOLECULE
ZINC000001530716
43    43    1     0     0
SMALL
USER_CHARGES
@<TRIPOS>ATOM
1      C1      0.0823    1.4510   -0.2163 C.3      1 ZINC000001530716   -0.1900
2      C2      0.0237   -0.0664   -0.0289 C.3      1 ZINC000001530716   -0.0200
3      N3     -1.3740   -0.4850    0.1418 N.4      1 ZINC000001530716   -0.3800
4      H4     -1.7925    0.0392    0.8955 H        1 ZINC000001530716    0.4300
5      C5     -2.1159   -0.2330   -1.1009 C.3      1 ZINC000001530716   -0.0100
6      C6     -3.5996   -0.5332   -0.8788 C.3      1 ZINC000001530716   -0.1900
7      C7     -1.4206   -1.9189    0.4577 C.3      1 ZINC000001530716   -0.0300
8      C8     -0.7562   -2.1642    1.8139 C.3      1 ZINC000001530716    0.1000
9      N9     -0.8026   -3.5942    2.1289 N.am     1 ZINC000001530716   -0.7400
10     C10    -0.2733   -4.0476    3.2824 C.2      1 ZINC000001530716    0.5800
11     O11     0.2430   -3.2696    4.0619 O.2      1 ZINC000001530716   -0.5100
12     C12    -0.3200   -5.4846    3.5991 C.ar     1 ZINC000001530716   -0.2400
13     C13    -0.9082   -6.3823    2.7016 C.ar     1 ZINC000001530716    0.0100
14     C14    -0.9503   -7.7245    3.0004 C.ar     1 ZINC000001530716   -0.1600
15     Cl15   -1.6806   -8.8368    1.8855 Cl       1 ZINC000001530716   -0.0600
16     C16    -0.4077   -8.1943    4.1960 C.ar     1 ZINC000001530716    0.3100
17     N17    -0.4530   -9.5531    4.4912 N.pl3    1 ZINC000001530716   -0.8500
18     C18     0.1784   -7.3102    5.0931 C.ar     1 ZINC000001530716   -0.3000
19     C19     0.2306   -5.9594    4.7997 C.ar     1 ZINC000001530716    0.2500
20     O20     0.8031   -5.0947    5.6746 O.3      1 ZINC000001530716   -0.2800
21     C21     1.3326   -5.6480    6.8810 C.3      1 ZINC000001530716    0.0200
22     H22     1.1228    1.7753   -0.2311 H        1 ZINC000001530716    0.1100
23     H23    -0.3953    1.7194   -1.1586 H        1 ZINC000001530716    0.0800
24     H24    -0.4388    1.9392    0.6072 H        1 ZINC000001530716    0.0800
25     H25     0.4455   -0.5574   -0.9059 H        1 ZINC000001530716    0.1300
26     H26     0.5971   -0.3457    0.8550 H        1 ZINC000001530716    0.1300
27     H27    -1.9958    0.8109   -1.3904 H        1 ZINC000001530716    0.1300
28     H28    -1.7294   -0.8761   -1.8915 H        1 ZINC000001530716    0.1300
29     H29    -4.1656   -0.2421   -1.7637 H        1 ZINC000001530716    0.1100
30     H30    -3.7314   -1.6000   -0.6980 H        1 ZINC000001530716    0.0800
31     H31    -3.9590    0.0285   -0.0166 H        1 ZINC000001530716    0.0800
32     H32    -2.4588   -2.2488    0.4968 H        1 ZINC000001530716    0.1400
33     H33    -0.8905   -2.4782   -0.3131 H        1 ZINC000001530716    0.1400
34     H34     0.2820   -1.8343    1.7748 H        1 ZINC000001530716    0.0900
35     H35    -1.2864   -1.6049    2.5847 H        1 ZINC000001530716    0.0900
36     H36    -1.2144   -4.2146    1.5073 H        1 ZINC000001530716    0.4000
37     H37    -1.3294   -6.0218    1.7748 H        1 ZINC000001530716    0.1400
38     H38    -0.8615  -10.1719    3.8658 H        1 ZINC000001530716    0.4100
39     H39    -0.0760   -9.8816    5.3224 H        1 ZINC000001530716    0.4100
40     H40     0.5975   -7.6783    6.0179 H        1 ZINC000001530716    0.1500
41     H41     0.5342   -6.1405    7.4360 H        1 ZINC000001530716    0.0600
42     H42     2.1078   -6.3747    6.6378 H        1 ZINC000001530716    0.0600
43     H43     1.7599   -4.8509    7.4894 H        1 ZINC000001530716    0.1100
@<TRIPOS>BOND
1     1     2     1
2     1     22    1
3     1     23    1
4     1     24    1
5     2     3     1
6     2     25    1
7     2     26    1
8     3     4     1
9     3     5     1
10    3     7     1
11    5     6     1
12    5     27    1
13    5     28    1
14    6     29    1
15    6     30    1
16    6     31    1
17    7     8     1
18    7     32    1
19    7     33    1
20    8     9     1
21    8     34    1
22    8     35    1
23    9     10    am
24    9     36    1
25    10    11    2
26    10    12    1
27    12    19    ar
28    12    13    ar
29    13    14    ar
30    13    37    1
31    14    15    1
32    14    16    ar
33    16    17    1
34    16    18    ar
35    17    38    1
36    17    39    1
37    18    19    ar
38    18    40    1
39    19    20    1
40    20    21    1
41    21    41    1
42    21    42    1
43    21    43    1
@<TRIPOS>SUBSTRUCTURE
1   ZINC000001530716 1     RESIDUE    1   A     ZIN   1
