@<TRIPOS>MOLECULE
ZINC000035902489
54    57    1     0     0
SMALL
USER_CHARGES
@<TRIPOS>ATOM
1      C1     -0.2367    1.5009   -0.1002 C.3      1 ZINC000035902489   -0.1900
2      C2      0.0023   -0.0068    0.0032 C.3      1 ZINC000035902489    0.1300
3      H3     -0.9541   -0.5204    0.1010 H        1 ZINC000035902489    0.1000
4      O4      0.6709   -0.4649   -1.1737 O.3      1 ZINC000035902489   -0.2800
5      C5     -0.1076   -0.7749   -2.2450 C.ar     1 ZINC000035902489    0.0900
6      C6     -1.4717   -0.5390   -2.2126 C.ar     1 ZINC000035902489   -0.0800
7      C7     -2.2310   -0.8740   -3.3390 C.ar     1 ZINC000035902489    0.0200
8      C8     -3.6976   -0.6402   -3.3542 C.2      1 ZINC000035902489   -0.2000
9      C9     -4.5485   -0.9258   -4.3813 C.2      1 ZINC000035902489    0.0800
10     N10    -5.7894   -0.5632   -3.9959 N.pl3    1 ZINC000035902489   -0.3600
11     C11    -7.0100   -0.6945   -4.7953 C.3      1 ZINC000035902489    0.1500
12     C12    -6.6817   -0.4629   -6.2731 C.3      1 ZINC000035902489   -0.1600
13     C13    -7.9440   -0.6796   -7.1104 C.3      1 ZINC000035902489    0.0000
14     N14    -8.4289   -2.0525   -6.9248 N.4      1 ZINC000035902489   -0.5100
15     H15    -9.2295   -2.2086   -7.5188 H        1 ZINC000035902489    0.4400
16     H16    -7.6974   -2.7026   -7.1704 H        1 ZINC000035902489    0.4300
17     C17    -8.8134   -2.2598   -5.5235 C.3      1 ZINC000035902489    0.0000
18     C18    -7.5846   -2.1038   -4.6251 C.3      1 ZINC000035902489   -0.1600
19     N19    -5.7092   -0.0402   -2.6996 N.2      1 ZINC000035902489   -0.2600
20     C20    -4.4632   -0.0892   -2.3086 C.2      1 ZINC000035902489    0.0900
21     C21    -1.5947   -1.4281   -4.4440 C.ar     1 ZINC000035902489    0.0800
22     N22    -0.2923   -1.6389   -4.4382 N.ar     1 ZINC000035902489   -0.4700
23     H23     0.1263   -2.0268   -5.2226 H        1 ZINC000035902489    0.4500
24     C24     0.4591   -1.3299   -3.3944 C.ar     1 ZINC000035902489    0.4300
25     N25     1.8301   -1.5717   -3.4378 N.pl3    1 ZINC000035902489   -0.8100
26     C26     0.8550   -0.2985    1.2111 C.ar     1 ZINC000035902489   -0.0600
27     C27     2.2091   -0.0175    1.1860 C.ar     1 ZINC000035902489   -0.0200
28     Cl28    2.9261    0.6706   -0.2375 Cl       1 ZINC000035902489   -0.0300
29     C29     2.9925   -0.2842    2.2950 C.ar     1 ZINC000035902489   -0.0700
30     C30     2.4230   -0.8320    3.4286 C.ar     1 ZINC000035902489   -0.1100
31     C31     1.0679   -1.1142    3.4552 C.ar     1 ZINC000035902489    0.1300
32     F32     0.5107   -1.6497    4.5633 F        1 ZINC000035902489   -0.1100
33     C33     0.2824   -0.8419    2.3468 C.ar     1 ZINC000035902489   -0.0600
34     Cl34   -1.4170   -1.1952    2.3787 Cl       1 ZINC000035902489   -0.0300
35     H35     0.7198    2.0145   -0.1980 H        1 ZINC000035902489    0.0900
36     H36    -0.8534    1.7119   -0.9739 H        1 ZINC000035902489    0.0700
37     H37    -0.7467    1.8504    0.7975 H        1 ZINC000035902489    0.0900
38     H38    -1.9381   -0.1074   -1.3393 H        1 ZINC000035902489    0.1800
39     H39    -4.2778   -1.3626   -5.3312 H        1 ZINC000035902489    0.1800
40     H40    -7.7435    0.0406   -4.4641 H        1 ZINC000035902489    0.1300
41     H41    -6.3243    0.5576   -6.4109 H        1 ZINC000035902489    0.1300
42     H42    -5.9103   -1.1652   -6.5890 H        1 ZINC000035902489    0.1000
43     H43    -8.7146    0.0233   -6.7939 H        1 ZINC000035902489    0.1400
44     H44    -7.7138   -0.5153   -8.1631 H        1 ZINC000035902489    0.1500
45     H45    -9.5654   -1.5232   -5.2408 H        1 ZINC000035902489    0.1400
46     H46    -9.2250   -3.2620   -5.4045 H        1 ZINC000035902489    0.1500
47     H47    -6.8319   -2.8402   -4.9068 H        1 ZINC000035902489    0.1000
48     H48    -7.8724   -2.2563   -3.5849 H        1 ZINC000035902489    0.1300
49     H49    -4.0852    0.2425   -1.3528 H        1 ZINC000035902489    0.2000
50     H50    -2.1736   -1.6895   -5.3175 H        1 ZINC000035902489    0.2000
51     H51     2.2285   -1.9644   -4.2302 H        1 ZINC000035902489    0.4200
52     H52     2.3865   -1.3473   -2.6756 H        1 ZINC000035902489    0.4400
53     H53     4.0497   -0.0645    2.2744 H        1 ZINC000035902489    0.1600
54     H54     3.0350   -1.0402    4.2937 H        1 ZINC000035902489    0.1700
@<TRIPOS>BOND
1     1     2     1
2     1     35    1
3     1     36    1
4     1     37    1
5     2     3     1
6     2     4     1
7     2     26    1
8     4     5     1
9     5     24    ar
10    5     6     ar
11    6     7     ar
12    6     38    1
13    7     8     1
14    7     21    ar
15    8     20    1
16    8     9     2
17    9     10    1
18    9     39    1
19    10    11    1
20    10    19    1
21    11    18    1
22    11    12    1
23    11    40    1
24    12    13    1
25    12    41    1
26    12    42    1
27    13    14    1
28    13    43    1
29    13    44    1
30    14    15    1
31    14    16    1
32    14    17    1
33    17    18    1
34    17    45    1
35    17    46    1
36    18    47    1
37    18    48    1
38    19    20    2
39    20    49    1
40    21    22    ar
41    21    50    1
42    22    23    1
43    22    24    ar
44    24    25    1
45    25    51    1
46    25    52    1
47    26    33    ar
48    26    27    ar
49    27    28    1
50    27    29    ar
51    29    30    ar
52    29    53    1
53    30    31    ar
54    30    54    1
55    31    32    1
56    31    33    ar
57    33    34    1
@<TRIPOS>SUBSTRUCTURE
1   ZINC000035902489 1     RESIDUE    1   A     ZIN   1
