@<TRIPOS>MOLECULE
ZINC000003813088
58    58    1     0     0
SMALL
USER_CHARGES
@<TRIPOS>ATOM
1      C1     -0.0187    1.5258    0.0104 C.3      1 ZINC000003813088   -0.1500
2      C2      0.0021   -0.0041    0.0020 C.3      1 ZINC000003813088   -0.1300
3      C3     -1.4333   -0.5336    0.0129 C.3      1 ZINC000003813088   -0.1200
4      C4     -1.4126   -2.0635    0.0045 C.3      1 ZINC000003813088   -0.1200
5      C5     -2.8479   -2.5931    0.0153 C.3      1 ZINC000003813088   -0.1400
6      C6     -2.8272   -4.1229    0.0069 C.3      1 ZINC000003813088    0.1300
7      H7     -2.2249   -4.4827    0.8411 H        1 ZINC000003813088    0.1100
8      O8     -2.2631   -4.5849   -1.2221 O.3      1 ZINC000003813088   -0.5600
9      C9     -4.2344   -4.6451    0.1414 C.2      1 ZINC000003813088   -0.1800
10     C10    -4.7117   -5.4786   -0.7495 C.2      1 ZINC000003813088   -0.1400
11     C11    -6.1189   -6.0008   -0.6150 C.3      1 ZINC000003813088   -0.0500
12     H12    -6.6006   -5.5778    0.2665 H        1 ZINC000003813088    0.1000
13     C13    -6.9414   -5.6841   -1.8898 C.3      1 ZINC000003813088    0.1100
14     H14    -6.3250   -5.7828   -2.7833 H        1 ZINC000003813088    0.0700
15     O15    -7.5152   -4.3776   -1.8128 O.3      1 ZINC000003813088   -0.5500
16     C16    -8.0396   -6.7758   -1.8547 C.3      1 ZINC000003813088   -0.2200
17     C17    -7.3273   -8.0126   -1.3367 C.2      1 ZINC000003813088    0.3700
18     O18    -7.6605   -9.1591   -1.5181 O.2      1 ZINC000003813088   -0.4300
19     C19    -6.1209   -7.5421   -0.5466 C.3      1 ZINC000003813088   -0.1400
20     H20    -5.2071   -7.9341   -0.9933 H        1 ZINC000003813088    0.1100
21     C21    -6.2336   -8.0074    0.9065 C.3      1 ZINC000003813088   -0.1000
22     C22    -6.1368   -9.5333    0.9624 C.3      1 ZINC000003813088   -0.1300
23     C23    -6.2495   -9.9986    2.4156 C.3      1 ZINC000003813088   -0.1200
24     C24    -6.1528  -11.5245    2.4715 C.3      1 ZINC000003813088   -0.1200
25     C25    -6.2654  -11.9898    3.9247 C.3      1 ZINC000003813088   -0.0900
26     C26    -6.1687  -13.5157    3.9806 C.3      1 ZINC000003813088   -0.1800
27     C27    -6.2797  -13.9740    5.4119 C.2      1 ZINC000003813088    0.4900
28     O28    -6.4229  -13.1559    6.3046 O.co2    1 ZINC000003813088   -0.7000
29     O29    -6.2263  -15.1628    5.6773 O.co2    1 ZINC000003813088   -0.7100
30     H30     1.0039    1.9031    0.0027 H        1 ZINC000003813088    0.0500
31     H31    -0.5459    1.8868   -0.8726 H        1 ZINC000003813088    0.0500
32     H32    -0.5289    1.8773    0.9072 H        1 ZINC000003813088    0.0500
33     H33     0.5123   -0.3556   -0.8948 H        1 ZINC000003813088    0.0600
34     H34     0.5293   -0.3651    0.8851 H        1 ZINC000003813088    0.0600
35     H35    -1.9435   -0.1821    0.9097 H        1 ZINC000003813088    0.0600
36     H36    -1.9605   -0.1726   -0.8702 H        1 ZINC000003813088    0.0600
37     H37    -0.9024   -2.4150   -0.8923 H        1 ZINC000003813088    0.0700
38     H38    -0.8854   -2.4246    0.8875 H        1 ZINC000003813088    0.0600
39     H39    -3.3581   -2.2415    0.9121 H        1 ZINC000003813088    0.0700
40     H40    -3.3751   -2.2320   -0.8677 H        1 ZINC000003813088    0.0700
41     H41    -2.7489   -4.3018   -2.0088 H        1 ZINC000003813088    0.3700
42     H42    -4.8494   -4.3322    0.9722 H        1 ZINC000003813088    0.1200
43     H43    -4.0967   -5.7915   -1.5803 H        1 ZINC000003813088    0.1200
44     H44    -8.0398   -4.1322   -2.5872 H        1 ZINC000003813088    0.3800
45     H45    -8.8423   -6.4866   -1.1764 H        1 ZINC000003813088    0.1100
46     H46    -8.4317   -6.9536   -2.8561 H        1 ZINC000003813088    0.0900
47     H47    -5.4245   -7.5703    1.4918 H        1 ZINC000003813088    0.0800
48     H48    -7.1919   -7.6888    1.3168 H        1 ZINC000003813088    0.0700
49     H49    -6.9459   -9.9703    0.3772 H        1 ZINC000003813088    0.0700
50     H50    -5.1785   -9.8519    0.5522 H        1 ZINC000003813088    0.0600
51     H51    -5.4404   -9.5615    3.0008 H        1 ZINC000003813088    0.0600
52     H52    -7.2078   -9.6800    2.8258 H        1 ZINC000003813088    0.0600
53     H53    -6.9618  -11.9615    1.8863 H        1 ZINC000003813088    0.0500
54     H54    -5.1945  -11.8431    2.0613 H        1 ZINC000003813088    0.0500
55     H55    -5.4564  -11.5527    4.5099 H        1 ZINC000003813088    0.0600
56     H56    -7.2237  -11.6712    4.3349 H        1 ZINC000003813088    0.0600
57     H57    -6.9778  -13.9527    3.3954 H        1 ZINC000003813088    0.0500
58     H58    -5.2104  -13.8342    3.5704 H        1 ZINC000003813088    0.0500
@<TRIPOS>BOND
1     1     2     1
2     1     30    1
3     1     31    1
4     1     32    1
5     2     3     1
6     2     33    1
7     2     34    1
8     3     4     1
9     3     35    1
10    3     36    1
11    4     5     1
12    4     37    1
13    4     38    1
14    5     6     1
15    5     39    1
16    5     40    1
17    6     7     1
18    6     8     1
19    6     9     1
20    8     41    1
21    9     10    2
22    9     42    1
23    10    11    1
24    10    43    1
25    11    12    1
26    11    19    1
27    11    13    1
28    13    14    1
29    13    15    1
30    13    16    1
31    15    44    1
32    16    17    1
33    16    45    1
34    16    46    1
35    17    18    2
36    17    19    1
37    19    20    1
38    19    21    1
39    21    22    1
40    21    47    1
41    21    48    1
42    22    23    1
43    22    49    1
44    22    50    1
45    23    24    1
46    23    51    1
47    23    52    1
48    24    25    1
49    24    53    1
50    24    54    1
51    25    26    1
52    25    55    1
53    25    56    1
54    26    27    1
55    26    57    1
56    26    58    1
57    27    28    ar
58    27    29    ar
@<TRIPOS>SUBSTRUCTURE
1   ZINC000003813088 1     RESIDUE    1   A     ZIN   1
