@<TRIPOS>MOLECULE
ZINC000001543873
38   38    0    0    0
SMALL
USER_CHARGES
NO_NAME
@<TRIPOS>ATOM
1 O1        0.0025    -0.0051     0.0315 O.2    1 <0>      -0.6000
2 C2       -0.0142     1.2076     0.0300 C.2    1 <0>       0.4500
3 C3        1.2804     1.9790     0.0134 C.3    1 <0>      -0.1400
4 C4        2.4567     1.0008     0.0006 C.3    1 <0>      -0.1000
5 C5        3.7710     1.7838    -0.0163 C.3    1 <0>      -0.1200
6 C6        4.9474     0.8057    -0.0291 C.3    1 <0>      -0.1200
7 C7        6.2617     1.5887    -0.0460 C.3    1 <0>      -0.1000
8 C8        7.4381     0.6106    -0.0588 C.3    1 <0>      -0.1400
9 C9        8.7326     1.3819    -0.0754 C.2    1 <0>       0.5100
10 O10       8.7160     2.5946    -0.0769 O.2    1 <0>      -0.5200
11 N11       9.9089     0.7241    -0.0887 N.am   1 <0>      -0.6800
12 C12      11.1077     1.4367    -0.2019 C.ar   1 <0>       0.1400
13 C13      12.1712     0.9004    -0.9161 C.ar   1 <0>      -0.1500
14 C14      13.3532     1.6062    -1.0260 C.ar   1 <0>      -0.1000
15 C15      13.4786     2.8455    -0.4254 C.ar   1 <0>      -0.1400
16 C16      12.4217     3.3820     0.2869 C.ar   1 <0>      -0.1000
17 C17      11.2348     2.6841     0.3949 C.ar   1 <0>      -0.1200
18 N18      -1.1905     1.8654     0.0376 N.am   1 <0>      -0.5400
19 O19      -2.4069     1.1407     0.0474 O.3    1 <0>      -0.6900
20 H20       1.3188     2.6051    -0.8780 H      1 <0>       0.0700
21 H21       1.3402     2.6076     0.9018 H      1 <0>       0.0700
22 H22       2.4183     0.3746     0.8920 H      1 <0>       0.0600
23 H23       2.3969     0.3721    -0.8879 H      1 <0>       0.0600
24 H24       3.8094     2.4100    -0.9077 H      1 <0>       0.0600
25 H25       3.8309     2.4125     0.8722 H      1 <0>       0.0600
26 H26       4.9090     0.1795     0.8623 H      1 <0>       0.0600
27 H27       4.8876     0.1770    -0.9176 H      1 <0>       0.0600
28 H28       6.3001     2.2149    -0.9374 H      1 <0>       0.0700
29 H29       6.3215     2.2174     0.8425 H      1 <0>       0.0700
30 H30       7.3997    -0.0156     0.8326 H      1 <0>       0.1000
31 H31       7.3782    -0.0181    -0.9473 H      1 <0>       0.1000
32 H32       9.9243    -0.2434    -0.0197 H      1 <0>       0.4100
33 H33      12.0741    -0.0677    -1.3849 H      1 <0>       0.1200
34 H34      14.1806     1.1897    -1.5813 H      1 <0>       0.1200
35 H35      14.4041     3.3953    -0.5125 H      1 <0>       0.1200
36 H36      12.5230     4.3498     0.7554 H      1 <0>       0.1300
37 H37      10.4097     3.1037     0.9513 H      1 <0>       0.1400
38 H38      -1.2038     2.8353     0.0365 H      1 <0>       0.3600
@<TRIPOS>BOND
1    1    2 2
2    2    3 1
3    2   18 am
4    3    4 1
5    3   20 1
6    3   21 1
7    4    5 1
8    4   22 1
9    4   23 1
10    5    6 1
11    5   24 1
12    5   25 1
13    6    7 1
14    6   26 1
15    6   27 1
16    7    8 1
17    7   28 1
18    7   29 1
19    8    9 1
20    8   30 1
21    8   31 1
22    9   10 2
23    9   11 am
24   11   12 1
25   11   32 1
26   12   17 ar
27   12   13 ar
28   13   14 ar
29   13   33 1
30   14   15 ar
31   14   34 1
32   15   16 ar
33   15   35 1
34   16   17 ar
35   16   36 1
36   17   37 1
37   18   19 1
38   18   38 1
