@<TRIPOS>MOLECULE
ZINC000003831477
14   13    0    0    0
SMALL
USER_CHARGES
NO_NAME
@<TRIPOS>ATOM
1 O1        0.0021    -0.0041     0.0020 O.co2  1 <0>      -0.6800
2 C2       -0.0145     1.2150     0.0087 C.2    1 <0>       0.5100
3 O3        1.0330     1.8389     0.0021 O.co2  1 <0>      -0.7000
4 C4       -1.3296     1.9507     0.0190 C.3    1 <0>      -0.0800
5 H5       -1.2330     2.8595     0.6129 H      1 <0>       0.1000
6 S6       -2.6106     0.8892     0.7421 S.3    1 <0>      -0.2400
7 C7       -1.7202     2.3172    -1.4142 C.3    1 <0>      -0.0700
8 H8       -0.9107     2.8804    -1.8786 H      1 <0>       0.1100
9 S9       -2.0252     0.8022    -2.3641 S.3    1 <0>      -0.2700
10 C10      -2.9706     3.1581    -1.3947 C.2    1 <0>       0.5000
11 O11      -3.0431     4.1588    -2.0875 O.co2  1 <0>      -0.7000
12 O12      -3.9097     2.8378    -0.6862 O.co2  1 <0>      -0.6600
13 H13      -2.6204    -0.1757    -0.0794 H      1 <0>       0.0800
14 H14      -3.0304     0.2182    -1.6877 H      1 <0>       0.0900
@<TRIPOS>BOND
1    1    2 ar
2    2    3 ar
3    2    4 1
4    4    5 1
5    4    6 1
6    4    7 1
7    6   13 1
8    7    8 1
9    7    9 1
10    7   10 1
11    9   14 1
12   10   11 ar
13   10   12 ar
