@<TRIPOS>MOLECULE
ZINC000000000973
45    46    1     0     0
SMALL
USER_CHARGES
@<TRIPOS>ATOM
1      C1     -0.0173    1.4248    0.0099 C.3      1 ZINC000000000973    0.0200
2      O2      0.0021   -0.0041    0.0020 O.3      1 ZINC000000000973   -0.3100
3      C3      0.6050   -0.6064   -1.0544 C.ar     1 ZINC000000000973    0.1500
4      C4      1.1723    0.1657   -2.0614 C.ar     1 ZINC000000000973   -0.2200
5      C5      1.7850   -0.4418   -3.1349 C.ar     1 ZINC000000000973   -0.0300
6      C6      1.8358   -1.8358   -3.2108 C.ar     1 ZINC000000000973   -0.1900
7      C7      2.4929   -2.4916   -4.3610 C.2      1 ZINC000000000973    0.4300
8      O8      2.9911   -1.8162   -5.2446 O.2      1 ZINC000000000973   -0.4600
9      C9      2.5432   -3.8995   -4.4359 C.2      1 ZINC000000000973   -0.3200
10     C10     3.1485   -4.5037   -5.4954 C.2      1 ZINC000000000973    0.2300
11     O11     3.7011   -3.7545   -6.4755 O.3      1 ZINC000000000973   -0.4300
12     C12     3.2012   -5.9761   -5.5738 C.ar     1 ZINC000000000973   -0.1200
13     C13     2.6259   -6.7537   -4.5654 C.ar     1 ZINC000000000973   -0.0800
14     C14     2.6786   -8.1295   -4.6456 C.ar     1 ZINC000000000973   -0.1200
15     C15     3.2996   -8.7401   -5.7211 C.ar     1 ZINC000000000973   -0.0500
16     C16     3.3533  -10.2440   -5.8011 C.3      1 ZINC000000000973   -0.0300
17     C17     1.9300  -10.8046   -5.8262 C.3      1 ZINC000000000973   -0.1400
18     C18     4.0883  -10.6609   -7.0766 C.3      1 ZINC000000000973   -0.1500
19     C19     4.0964  -10.7934   -4.5817 C.3      1 ZINC000000000973   -0.1400
20     C20     3.8711   -7.9763   -6.7237 C.ar     1 ZINC000000000973   -0.1200
21     C21     3.8215   -6.5996   -6.6596 C.ar     1 ZINC000000000973   -0.1000
22     C22     1.2646   -2.6083   -2.1967 C.ar     1 ZINC000000000973   -0.0400
23     C23     0.6586   -1.9935   -1.1236 C.ar     1 ZINC000000000973   -0.1600
24     H24     1.0053    1.8021    0.0021 H        1 ZINC000000000973    0.0600
25     H25    -0.5445    1.7859   -0.8732 H        1 ZINC000000000973    0.0600
26     H26    -0.5275    1.7763    0.9067 H        1 ZINC000000000973    0.1000
27     H27     1.1323    1.2433   -2.0021 H        1 ZINC000000000973    0.1300
28     H28     2.2252    0.1587   -3.9171 H        1 ZINC000000000973    0.1400
29     H29     2.1017   -4.4980   -3.6528 H        1 ZINC000000000973    0.1500
30     H30     4.1068   -4.2719   -7.1846 H        1 ZINC000000000973    0.3900
31     H31     2.1416   -6.2786   -3.7252 H        1 ZINC000000000973    0.1400
32     H32     2.2344   -8.7319   -3.8669 H        1 ZINC000000000973    0.1300
33     H33     1.4006  -10.4132   -6.6950 H        1 ZINC000000000973    0.0600
34     H34     1.9688  -11.8924   -5.8841 H        1 ZINC000000000973    0.0600
35     H35     1.4064  -10.5076   -4.9175 H        1 ZINC000000000973    0.0600
36     H36     5.1023  -10.2615   -7.0587 H        1 ZINC000000000973    0.0600
37     H37     4.1272  -11.7487   -7.1345 H        1 ZINC000000000973    0.0600
38     H38     3.5589  -10.2695   -7.9454 H        1 ZINC000000000973    0.0600
39     H39     3.5728  -10.4964   -3.6730 H        1 ZINC000000000973    0.0600
40     H40     4.1352  -11.8812   -4.6395 H        1 ZINC000000000973    0.0600
41     H41     5.1104  -10.3940   -4.5637 H        1 ZINC000000000973    0.0600
42     H42     4.3541   -8.4596   -7.5601 H        1 ZINC000000000973    0.1400
43     H43     4.2679   -6.0047   -7.4427 H        1 ZINC000000000973    0.1300
44     H44     1.3019   -3.6862   -2.2520 H        1 ZINC000000000973    0.1400
45     H45     0.2170   -2.5901   -0.3390 H        1 ZINC000000000973    0.1400
@<TRIPOS>BOND
1     1     2     1
2     1     24    1
3     1     25    1
4     1     26    1
5     2     3     1
6     3     23    ar
7     3     4     ar
8     4     5     ar
9     4     27    1
10    5     6     ar
11    5     28    1
12    6     7     1
13    6     22    ar
14    7     8     2
15    7     9     1
16    9     10    2
17    9     29    1
18    10    11    1
19    10    12    1
20    11    30    1
21    12    21    ar
22    12    13    ar
23    13    14    ar
24    13    31    1
25    14    15    ar
26    14    32    1
27    15    16    1
28    15    20    ar
29    16    17    1
30    16    18    1
31    16    19    1
32    17    33    1
33    17    34    1
34    17    35    1
35    18    36    1
36    18    37    1
37    18    38    1
38    19    39    1
39    19    40    1
40    19    41    1
41    20    21    ar
42    20    42    1
43    21    43    1
44    22    23    ar
45    22    44    1
46    23    45    1
@<TRIPOS>SUBSTRUCTURE
1   ZINC000000000973 1     RESIDUE    1   A     ZIN   1
