@<TRIPOS>MOLECULE
ZINC000001530580
56    59    1     0     0
SMALL
USER_CHARGES
@<TRIPOS>ATOM
1      C1     -0.0173    1.4248    0.0099 C.3      1 ZINC000001530580    0.0300
2      O2      0.0021   -0.0041    0.0020 O.3      1 ZINC000001530580   -0.3100
3      C3     -1.2011   -0.6379    0.0101 C.ar     1 ZINC000001530580    0.1000
4      C4     -2.3739    0.0992    0.0195 C.ar     1 ZINC000001530580   -0.1700
5      C5     -3.5965   -0.5469    0.0272 C.ar     1 ZINC000001530580   -0.1200
6      C6     -3.6519   -1.9279    0.0261 C.ar     1 ZINC000001530580   -0.1200
7      C7     -2.4848   -2.6697    0.0172 C.ar     1 ZINC000001530580   -0.1700
8      C8     -1.2569   -2.0287    0.0032 C.ar     1 ZINC000001530580    0.1000
9      O9     -0.1082   -2.7567   -0.0056 O.3      1 ZINC000001530580   -0.3100
10     C10    -0.2418   -4.1795    0.0004 C.3      1 ZINC000001530580    0.0600
11     C11     1.1466   -4.8221   -0.0110 C.3      1 ZINC000001530580    0.0600
12     N12     1.8490   -4.4925    1.2364 N.3      1 ZINC000001530580   -0.6800
13     C13     3.1889   -5.0942    1.2609 C.3      1 ZINC000001530580    0.0300
14     C14     3.8878   -4.7295    2.5722 C.3      1 ZINC000001530580    0.1100
15     H15     3.8957   -3.6460    2.6907 H        1 ZINC000001530580    0.1100
16     O16     3.1867   -5.3233    3.6668 O.3      1 ZINC000001530580   -0.5400
17     C17     5.3263   -5.2501    2.5454 C.3      1 ZINC000001530580    0.0300
18     O18     6.0140   -4.8101    3.7182 O.3      1 ZINC000001530580   -0.3000
19     C19     7.3120   -5.1888    3.8506 C.ar     1 ZINC000001530580    0.1900
20     C20     7.9138   -5.9612    2.8731 C.ar     1 ZINC000001530580   -0.2500
21     C21     9.2376   -6.3478    3.0076 C.ar     1 ZINC000001530580   -0.0400
22     C22     9.9702   -5.9705    4.1124 C.ar     1 ZINC000001530580   -0.1800
23     C23     9.3842   -5.1937    5.1084 C.ar     1 ZINC000001530580    0.1800
24     C24     8.0472   -4.7953    4.9719 C.ar     1 ZINC000001530580   -0.1400
25     C25     7.7236   -3.9971    6.1681 C.ar     1 ZINC000001530580   -0.0900
26     C26     8.8871   -3.9645    6.9512 C.ar     1 ZINC000001530580    0.1300
27     C27     8.8774   -3.2719    8.1581 C.ar     1 ZINC000001530580   -0.1400
28     C28     7.7328   -2.6267    8.5741 C.ar     1 ZINC000001530580   -0.0900
29     C29     6.5834   -2.6603    7.7993 C.ar     1 ZINC000001530580   -0.1500
30     C30     6.5738   -3.3403    6.6005 C.ar     1 ZINC000001530580   -0.0600
31     N31     9.8729   -4.6825    6.2974 N.pl3    1 ZINC000001530580   -0.6100
32     H32     1.0053    1.8021    0.0021 H        1 ZINC000001530580    0.1000
33     H33    -0.5445    1.7859   -0.8732 H        1 ZINC000001530580    0.0500
34     H34    -0.5275    1.7763    0.9067 H        1 ZINC000001530580    0.0600
35     H35    -2.3334    1.1784    0.0211 H        1 ZINC000001530580    0.1300
36     H36    -4.5102    0.0290    0.0345 H        1 ZINC000001530580    0.1300
37     H37    -4.6086   -2.4288    0.0325 H        1 ZINC000001530580    0.1300
38     H38    -2.5308   -3.7487    0.0170 H        1 ZINC000001530580    0.1300
39     H39    -0.7787   -4.4902    0.8967 H        1 ZINC000001530580    0.0700
40     H40    -0.7960   -4.4961   -0.8832 H        1 ZINC000001530580    0.0700
41     H41     1.0455   -5.9041   -0.0960 H        1 ZINC000001530580    0.0900
42     H42     1.7157   -4.4426   -0.8596 H        1 ZINC000001530580    0.0400
43     H43     1.8986   -3.4936    1.3704 H        1 ZINC000001530580    0.3500
44     H44     3.1019   -6.1780    1.1847 H        1 ZINC000001530580    0.0800
45     H45     3.7722   -4.7165    0.4211 H        1 ZINC000001530580    0.0400
46     H46     3.1402   -6.2883    3.6270 H        1 ZINC000001530580    0.3700
47     H47     5.3178   -6.3397    2.5164 H        1 ZINC000001530580    0.0700
48     H48     5.8348   -4.8670    1.6607 H        1 ZINC000001530580    0.0700
49     H49     7.3502   -6.2639    2.0029 H        1 ZINC000001530580    0.1300
50     H50     9.6995   -6.9506    2.2398 H        1 ZINC000001530580    0.1300
51     H51    11.0012   -6.2784    4.2060 H        1 ZINC000001530580    0.1300
52     H52     9.7672   -3.2403    8.7693 H        1 ZINC000001530580    0.1200
53     H53     7.7310   -2.0907    9.5117 H        1 ZINC000001530580    0.1300
54     H54     5.6924   -2.1514    8.1363 H        1 ZINC000001530580    0.1300
55     H55     5.6771   -3.3651    5.9991 H        1 ZINC000001530580    0.1300
56     H56    10.7752   -4.8137    6.6282 H        1 ZINC000001530580    0.4200
@<TRIPOS>BOND
1     1     2     1
2     1     32    1
3     1     33    1
4     1     34    1
5     2     3     1
6     3     8     ar
7     3     4     ar
8     4     5     ar
9     4     35    1
10    5     6     ar
11    5     36    1
12    6     7     ar
13    6     37    1
14    7     8     ar
15    7     38    1
16    8     9     1
17    9     10    1
18    10    11    1
19    10    39    1
20    10    40    1
21    11    12    1
22    11    41    1
23    11    42    1
24    12    13    1
25    12    43    1
26    13    14    1
27    13    44    1
28    13    45    1
29    14    15    1
30    14    16    1
31    14    17    1
32    16    46    1
33    17    18    1
34    17    47    1
35    17    48    1
36    18    19    1
37    19    24    ar
38    19    20    ar
39    20    21    ar
40    20    49    1
41    21    22    ar
42    21    50    1
43    22    23    ar
44    22    51    1
45    23    31    1
46    23    24    ar
47    24    25    1
48    25    30    ar
49    25    26    ar
50    26    27    ar
51    26    31    1
52    27    28    ar
53    27    52    1
54    28    29    ar
55    28    53    1
56    29    30    ar
57    29    54    1
58    30    55    1
59    31    56    1
@<TRIPOS>SUBSTRUCTURE
1   ZINC000001530580 1     RESIDUE    1   A     ZIN   1
