@<TRIPOS>MOLECULE
ZINC000022016981
59    59    1     0     0
SMALL
USER_CHARGES
@<TRIPOS>ATOM
1      C1     -0.3774    2.2030   -0.7934 C.3      1 ZINC000022016981   -0.1900
2      C2     -0.2378    0.7019   -0.5324 C.3      1 ZINC000022016981    0.0800
3      H3     -1.2280    0.2534   -0.4522 H        1 ZINC000022016981    0.1200
4      O4      0.4790    0.4950    0.6865 O.3      1 ZINC000022016981   -0.5600
5      C5      0.5244    0.0518   -1.6889 C.3      1 ZINC000022016981   -0.0500
6      N6      0.5545   -1.3966   -1.4992 N.4      1 ZINC000022016981   -0.3700
7      H7      0.9571   -1.5591   -0.5617 H        1 ZINC000022016981    0.4300
8      C8     -0.7823   -1.9857   -1.4857 C.3      1 ZINC000022016981   -0.0100
9      C9     -1.6773   -1.4537   -2.5953 C.3      1 ZINC000022016981   -0.0300
10     N10    -2.4176   -2.6183   -3.1951 N.3      1 ZINC000022016981   -0.4200
11     C11    -3.7864   -2.5510   -2.5776 C.3      1 ZINC000022016981   -0.0600
12     C12    -4.5498   -3.8071   -2.9102 C.2      1 ZINC000022016981    0.5000
13     O13    -4.0280   -4.6764   -3.5872 O.co2    1 ZINC000022016981   -0.6700
14     O14    -5.6894   -3.9539   -2.5022 O.co2    1 ZINC000022016981   -0.6900
15     C15    -2.6366   -2.2331   -4.6333 C.3      1 ZINC000022016981    0.0100
16     C16    -2.5331   -3.4963   -5.4746 C.3      1 ZINC000022016981    0.0000
17     N17    -1.7426   -3.3244   -6.6891 N.4      1 ZINC000022016981   -0.3600
18     H18    -2.0260   -4.0826   -7.3326 H        1 ZINC000022016981    0.4300
19     C19    -2.0283   -2.0693   -7.3782 C.3      1 ZINC000022016981   -0.0800
20     C20    -1.2667   -2.0252   -8.6778 C.2      1 ZINC000022016981    0.4900
21     O21    -0.5508   -2.9591   -8.9968 O.co2    1 ZINC000022016981   -0.6700
22     O22    -1.3664   -1.0556   -9.4102 O.co2    1 ZINC000022016981   -0.6500
23     C23    -0.3173   -3.5130   -6.4331 C.3      1 ZINC000022016981    0.0000
24     C24     0.3691   -2.2586   -5.9124 C.3      1 ZINC000022016981    0.0000
25     N25     1.3180   -2.6743   -4.8203 N.3      1 ZINC000022016981   -0.4200
26     C26     2.6732   -2.6429   -5.4700 C.3      1 ZINC000022016981   -0.0600
27     C27     3.6566   -3.4028   -4.6178 C.2      1 ZINC000022016981    0.5000
28     O28     3.2701   -4.0046   -3.6304 O.co2    1 ZINC000022016981   -0.6800
29     O29     4.8388   -3.4159   -4.9157 O.co2    1 ZINC000022016981   -0.6900
30     C30     1.3332   -1.5137   -3.8632 C.3      1 ZINC000022016981    0.0000
31     C31     1.4303   -2.0728   -2.4515 C.3      1 ZINC000022016981    0.0000
32     H32     0.6128    2.6515   -0.8736 H        1 ZINC000022016981    0.0700
33     H33    -0.9241    2.3608   -1.7231 H        1 ZINC000022016981    0.0800
34     H34    -0.9204    2.6660    0.0305 H        1 ZINC000022016981    0.0800
35     H35     1.3708    0.8688    0.6866 H        1 ZINC000022016981    0.3900
36     H36     0.0253    0.2849   -2.6294 H        1 ZINC000022016981    0.1300
37     H37     1.5441    0.4363   -1.7136 H        1 ZINC000022016981    0.1300
38     H38    -0.6964   -3.0743   -1.5808 H        1 ZINC000022016981    0.1500
39     H39    -1.2517   -1.7764   -0.5158 H        1 ZINC000022016981    0.1200
40     H40    -2.4242   -0.7763   -2.1843 H        1 ZINC000022016981    0.0800
41     H41    -1.1215   -0.9790   -3.3858 H        1 ZINC000022016981    0.0800
42     H42    -3.6927   -2.4586   -1.4956 H        1 ZINC000022016981    0.0700
43     H43    -4.3205   -1.6862   -2.9712 H        1 ZINC000022016981    0.0500
44     H44    -3.6420   -1.8173   -4.7017 H        1 ZINC000022016981    0.0800
45     H45    -1.9006   -1.4916   -4.8900 H        1 ZINC000022016981    0.0700
46     H46    -2.0857   -4.2944   -4.8682 H        1 ZINC000022016981    0.1500
47     H47    -3.5433   -3.8256   -5.7513 H        1 ZINC000022016981    0.1300
48     H48    -3.0972   -2.0013   -7.5810 H        1 ZINC000022016981    0.1200
49     H49    -1.7237   -1.2323   -6.7499 H        1 ZINC000022016981    0.1100
50     H50    -0.1899   -4.3215   -5.7027 H        1 ZINC000022016981    0.1300
51     H51     0.1728   -3.8297   -7.3627 H        1 ZINC000022016981    0.1500
52     H52     0.9673   -1.8017   -6.6986 H        1 ZINC000022016981    0.0800
53     H53    -0.3229   -1.5490   -5.4932 H        1 ZINC000022016981    0.0700
54     H54     2.6142   -3.1041   -6.4559 H        1 ZINC000022016981    0.0800
55     H55     3.0034   -1.6091   -5.5718 H        1 ZINC000022016981    0.0500
56     H56     2.2177   -0.9206   -4.0948 H        1 ZINC000022016981    0.0800
57     H57     0.4365   -0.9424   -4.0298 H        1 ZINC000022016981    0.0700
58     H58     2.4681   -1.9846   -2.1035 H        1 ZINC000022016981    0.1300
59     H59     1.1838   -3.1414   -2.4704 H        1 ZINC000022016981    0.1600
@<TRIPOS>BOND
1     1     2     1
2     1     32    1
3     1     33    1
4     1     34    1
5     2     3     1
6     2     4     1
7     2     5     1
8     4     35    1
9     5     6     1
10    5     36    1
11    5     37    1
12    6     7     1
13    6     31    1
14    6     8     1
15    8     9     1
16    8     38    1
17    8     39    1
18    9     10    1
19    9     40    1
20    9     41    1
21    10    11    1
22    10    15    1
23    11    12    1
24    11    42    1
25    11    43    1
26    12    13    ar
27    12    14    ar
28    15    16    1
29    15    44    1
30    15    45    1
31    16    17    1
32    16    46    1
33    16    47    1
34    17    18    1
35    17    19    1
36    17    23    1
37    19    20    1
38    19    48    1
39    19    49    1
40    20    21    ar
41    20    22    ar
42    23    24    1
43    23    50    1
44    23    51    1
45    24    25    1
46    24    52    1
47    24    53    1
48    25    26    1
49    25    30    1
50    26    27    1
51    26    54    1
52    26    55    1
53    27    28    ar
54    27    29    ar
55    30    31    1
56    30    56    1
57    30    57    1
58    31    58    1
59    31    59    1
@<TRIPOS>SUBSTRUCTURE
1   ZINC000022016981 1     RESIDUE    1   A     ZIN   1
