@<TRIPOS>MOLECULE
ZINC000003830958
56    56    1     0     0
SMALL
USER_CHARGES
@<TRIPOS>ATOM
1      C1      3.5107    1.4074   -1.5994 C.3      1 ZINC000003830958    0.0300
2      O2      3.4462   -0.0138   -1.4658 O.3      1 ZINC000003830958   -0.3600
3      C3      2.1993   -0.5800   -1.8741 C.3      1 ZINC000003830958    0.0500
4      C4      2.2427   -2.0753   -1.6914 C.2      1 ZINC000003830958    0.5200
5      O5      3.2430   -2.6041   -1.2545 O.2      1 ZINC000003830958   -0.4800
6      N6      1.1699   -2.8249   -2.0135 N.am     1 ZINC000003830958   -0.7000
7      C7      1.2403   -4.2210   -1.9283 C.ar     1 ZINC000003830958    0.2200
8      C8      0.9199   -4.8586   -0.7388 C.ar     1 ZINC000003830958   -0.0600
9      I9      0.3313   -3.7320    0.9266 I        1 ZINC000003830958    0.0200
10     C10     0.9889   -6.2513   -0.6500 C.ar     1 ZINC000003830958   -0.0400
11     C11     0.6470   -6.9296    0.6175 C.2      1 ZINC000003830958    0.5600
12     O12    -0.4980   -7.2780    0.8308 O.2      1 ZINC000003830958   -0.4900
13     N13     1.6045   -7.1620    1.5370 N.am     1 ZINC000003830958   -0.7000
14     C14     1.2655   -7.8345    2.7936 C.3      1 ZINC000003830958    0.0900
15     C15     2.5236   -7.9736    3.6532 C.3      1 ZINC000003830958    0.1000
16     H16     2.9280   -6.9844    3.8680 H        1 ZINC000003830958    0.1200
17     O17     3.4991   -8.7443    2.9485 O.3      1 ZINC000003830958   -0.5500
18     C18     2.1696   -8.6759    4.9655 C.3      1 ZINC000003830958    0.0500
19     O19     3.3174   -8.7021    5.8165 O.3      1 ZINC000003830958   -0.5600
20     C20     1.3802   -7.0001   -1.7588 C.ar     1 ZINC000003830958   -0.0500
21     I21     1.4847   -9.0886   -1.6316 I        1 ZINC000003830958    0.0300
22     C22     1.7015   -6.3557   -2.9529 C.ar     1 ZINC000003830958   -0.0300
23     C23     2.1163   -7.1451   -4.1311 C.2      1 ZINC000003830958    0.5600
24     O24     1.2825   -7.5388   -4.9232 O.2      1 ZINC000003830958   -0.4900
25     N25     3.4192   -7.4287   -4.3275 N.am     1 ZINC000003830958   -0.5900
26     C26     4.4241   -6.9542   -3.3729 C.3      1 ZINC000003830958    0.0700
27     C27     3.8305   -8.2113   -5.4957 C.3      1 ZINC000003830958    0.0900
28     C28     4.1234   -7.2680   -6.6641 C.3      1 ZINC000003830958    0.0900
29     H29     3.2541   -6.6367   -6.8481 H        1 ZINC000003830958    0.1100
30     O30     5.2486   -6.4476   -6.3435 O.3      1 ZINC000003830958   -0.5400
31     C31     4.4318   -8.0893   -7.9177 C.3      1 ZINC000003830958    0.0500
32     O32     4.5907   -7.2123   -9.0346 O.3      1 ZINC000003830958   -0.5600
33     C33     1.6247   -4.9635   -3.0357 C.ar     1 ZINC000003830958   -0.0700
34     I34     2.1071   -3.9939   -4.8291 I        1 ZINC000003830958    0.0300
35     H35     3.3597    1.6814   -2.6436 H        1 ZINC000003830958    0.0500
36     H36     2.7337    1.8656   -0.9875 H        1 ZINC000003830958    0.0500
37     H37     4.4881    1.7594   -1.2692 H        1 ZINC000003830958    0.0900
38     H38     1.3951   -0.1631   -1.2679 H        1 ZINC000003830958    0.0900
39     H39     2.0210   -0.3473   -2.9239 H        1 ZINC000003830958    0.0900
40     H40     0.3492   -2.3975   -2.3043 H        1 ZINC000003830958    0.4200
41     H41     2.5181   -6.8840    1.3668 H        1 ZINC000003830958    0.4100
42     H42     0.5215   -7.2467    3.3311 H        1 ZINC000003830958    0.0900
43     H43     0.8611   -8.8237    2.5788 H        1 ZINC000003830958    0.0800
44     H44     3.2068   -9.6382    2.7239 H        1 ZINC000003830958    0.3800
45     H45     1.3626   -8.1357    5.4605 H        1 ZINC000003830958    0.0600
46     H46     1.8490   -9.6965    4.7565 H        1 ZINC000003830958    0.0500
47     H47     3.1656   -9.1337    6.6684 H        1 ZINC000003830958    0.3800
48     H48     4.5667   -7.7026   -2.5934 H        1 ZINC000003830958    0.0600
49     H49     5.3677   -6.7861   -3.8921 H        1 ZINC000003830958    0.0900
50     H50     4.0857   -6.0209   -2.9230 H        1 ZINC000003830958    0.0700
51     H51     4.7284   -8.7801   -5.2541 H        1 ZINC000003830958    0.0900
52     H52     3.0300   -8.8968   -5.7739 H        1 ZINC000003830958    0.1000
53     H53     6.0597   -6.9438   -6.1672 H        1 ZINC000003830958    0.3700
54     H54     5.3517   -8.6537   -7.7651 H        1 ZINC000003830958    0.0500
55     H55     3.6103   -8.7791   -8.1113 H        1 ZINC000003830958    0.0600
56     H56     4.7885   -7.6655   -9.8656 H        1 ZINC000003830958    0.3800
@<TRIPOS>BOND
1     1     2     1
2     1     35    1
3     1     36    1
4     1     37    1
5     2     3     1
6     3     4     1
7     3     38    1
8     3     39    1
9     4     5     2
10    4     6     am
11    6     7     1
12    6     40    1
13    7     33    ar
14    7     8     ar
15    8     9     1
16    8     10    ar
17    10    11    1
18    10    20    ar
19    11    12    2
20    11    13    am
21    13    14    1
22    13    41    1
23    14    15    1
24    14    42    1
25    14    43    1
26    15    16    1
27    15    17    1
28    15    18    1
29    17    44    1
30    18    19    1
31    18    45    1
32    18    46    1
33    19    47    1
34    20    21    1
35    20    22    ar
36    22    23    1
37    22    33    ar
38    23    24    2
39    23    25    am
40    25    26    1
41    25    27    1
42    26    48    1
43    26    49    1
44    26    50    1
45    27    28    1
46    27    51    1
47    27    52    1
48    28    29    1
49    28    30    1
50    28    31    1
51    30    53    1
52    31    32    1
53    31    54    1
54    31    55    1
55    32    56    1
56    33    34    1
@<TRIPOS>SUBSTRUCTURE
1   ZINC000003830958 1     RESIDUE    1   A     ZIN   1
