@<TRIPOS>MOLECULE
ZINC000000000740
34    36    1     0     0
SMALL
USER_CHARGES
@<TRIPOS>ATOM
1      C1      0.5636    1.4222    0.1925 C.3      1 ZINC000000000740    0.0600
2      N2      0.3228   -0.0202    0.1047 N.am     1 ZINC000000000740   -0.5500
3      C3     -0.9933   -0.4532    0.1626 C.ar     1 ZINC000000000740    0.2000
4      C4     -1.9462    0.2984   -0.5273 C.ar     1 ZINC000000000740   -0.1300
5      C5     -3.2742   -0.0682   -0.5147 C.ar     1 ZINC000000000740   -0.0600
6      C6     -3.6780   -1.1930    0.1868 C.ar     1 ZINC000000000740   -0.0500
7      Cl7    -5.3521   -1.6523    0.2009 Cl       1 ZINC000000000740   -0.0600
8      C8     -2.7517   -1.9466    0.8723 C.ar     1 ZINC000000000740   -0.0500
9      C9     -1.3960   -1.5852    0.8687 C.ar     1 ZINC000000000740   -0.1200
10     C10    -0.4608   -2.4383    1.6187 C.2      1 ZINC000000000740    0.3000
11     C11    -0.9077   -2.9542    2.9336 C.ar     1 ZINC000000000740   -0.0800
12     C12    -0.3326   -4.1083    3.4651 C.ar     1 ZINC000000000740   -0.0700
13     C13    -0.7527   -4.5836    4.6905 C.ar     1 ZINC000000000740   -0.1300
14     C14    -1.7426   -3.9180    5.3913 C.ar     1 ZINC000000000740   -0.1000
15     C15    -2.3172   -2.7730    4.8691 C.ar     1 ZINC000000000740   -0.1200
16     C16    -1.9012   -2.2845    3.6475 C.ar     1 ZINC000000000740   -0.0900
17     N17     0.7151   -2.7700    1.2180 N.2      1 ZINC000000000740   -0.5300
18     C18     1.2538   -2.3087   -0.0608 C.3      1 ZINC000000000740    0.2400
19     H19     2.2335   -2.7566   -0.2271 H        1 ZINC000000000740    0.1300
20     O20     0.3691   -2.6869   -1.1173 O.3      1 ZINC000000000740   -0.5600
21     C21     1.3841   -0.8123   -0.0298 C.2      1 ZINC000000000740    0.5200
22     O22     2.4857   -0.3133   -0.1217 O.2      1 ZINC000000000740   -0.5000
23     H23     1.6343    1.6163    0.1293 H        1 ZINC000000000740    0.1000
24     H24     0.0538    1.9263   -0.6285 H        1 ZINC000000000740    0.0800
25     H25     0.1818    1.7971    1.1421 H        1 ZINC000000000740    0.0700
26     H26    -1.6393    1.1764   -1.0761 H        1 ZINC000000000740    0.1400
27     H27    -4.0015    0.5216   -1.0528 H        1 ZINC000000000740    0.1500
28     H28    -3.0712   -2.8224    1.4174 H        1 ZINC000000000740    0.1500
29     H29     0.4397   -4.6290    2.9186 H        1 ZINC000000000740    0.1300
30     H30    -0.3081   -5.4771    5.1031 H        1 ZINC000000000740    0.1300
31     H31    -2.0683   -4.2941    6.3499 H        1 ZINC000000000740    0.1300
32     H32    -3.0898   -2.2580    5.4207 H        1 ZINC000000000740    0.1300
33     H33    -2.3505   -1.3905    3.2408 H        1 ZINC000000000740    0.1300
34     H34     0.2329   -3.6412   -1.1936 H        1 ZINC000000000740    0.3900
@<TRIPOS>BOND
1     1     2     1
2     1     23    1
3     1     24    1
4     1     25    1
5     2     21    am
6     2     3     1
7     3     9     ar
8     3     4     ar
9     4     5     ar
10    4     26    1
11    5     6     ar
12    5     27    1
13    6     7     1
14    6     8     ar
15    8     9     ar
16    8     28    1
17    9     10    1
18    10    11    1
19    10    17    2
20    11    16    ar
21    11    12    ar
22    12    13    ar
23    12    29    1
24    13    14    ar
25    13    30    1
26    14    15    ar
27    14    31    1
28    15    16    ar
29    15    32    1
30    16    33    1
31    17    18    1
32    18    19    1
33    18    20    1
34    18    21    1
35    20    34    1
36    21    22    2
@<TRIPOS>SUBSTRUCTURE
1   ZINC000000000740 1     RESIDUE    1   A     ZIN   1
