@<TRIPOS>MOLECULE
ZINC000003833821
54    57    1     0     0
SMALL
USER_CHARGES
@<TRIPOS>ATOM
1      C1     -0.6592    1.5852   -0.2347 C.3      1 ZINC000003833821   -0.1700
2      C2     -0.8473    0.0669   -0.2133 C.3      1 ZINC000003833821   -0.0400
3      C3     -2.1902   -0.2756    0.4031 C.3      1 ZINC000003833821   -0.1200
4      C4     -2.2445    0.4090    1.7781 C.3      1 ZINC000003833821    0.1100
5      H5     -3.1859    0.1544    2.2650 H        1 ZINC000003833821    0.0600
6      O6     -2.1822    1.8251    1.5964 O.3      1 ZINC000003833821   -0.5500
7      C7     -1.0882   -0.0278    2.6715 C.3      1 ZINC000003833821   -0.0500
8      H8     -1.1974   -1.0862    2.9080 H        1 ZINC000003833821    0.0900
9      C9      0.2728    0.2018    1.9954 C.3      1 ZINC000003833821   -0.0800
10     H10     0.4171    1.2665    1.8114 H        1 ZINC000003833821    0.1000
11     C11     1.3897   -0.3213    2.9004 C.3      1 ZINC000003833821   -0.1100
12     C12     1.4175    0.4824    4.2046 C.3      1 ZINC000003833821   -0.1000
13     C13     0.0352    0.4193    4.8272 C.2      1 ZINC000003833821   -0.0200
14     C14    -0.0838    0.0472    6.0939 C.2      1 ZINC000003833821   -0.2300
15     C15    -1.4091   -0.0454    6.7256 C.2      1 ZINC000003833821    0.4100
16     O16    -1.5199   -0.3521    7.8980 O.2      1 ZINC000003833821   -0.4600
17     C17    -2.5987    0.2422    5.9064 C.2      1 ZINC000003833821   -0.2200
18     C18    -2.4565    0.6180    4.6449 C.2      1 ZINC000003833821   -0.0600
19     C19    -1.1170    0.7845    3.9701 C.3      1 ZINC000003833821   -0.0100
20     C20    -0.9661    2.2570    3.5830 C.3      1 ZINC000003833821   -0.1400
21     C21     0.2446   -0.5860    0.6763 C.3      1 ZINC000003833821   -0.0800
22     H22     0.0235   -1.6362    0.8667 H        1 ZINC000003833821    0.0800
23     C23     1.4924   -0.4541   -0.2042 C.3      1 ZINC000003833821   -0.1100
24     C24     0.9604   -0.8143   -1.6182 C.3      1 ZINC000003833821   -0.1500
25     C25    -0.5635   -0.5085   -1.5970 C.3      1 ZINC000003833821    0.1000
26     O26    -1.3126   -1.7132   -1.7687 O.3      1 ZINC000003833821   -0.5400
27     C27    -0.9122    0.4828   -2.6772 C.2      1 ZINC000003833821    0.3400
28     O28    -0.0776    1.2585   -3.0772 O.2      1 ZINC000003833821   -0.4100
29     C29    -2.3025    0.5061   -3.2582 C.3      1 ZINC000003833821    0.0300
30     O30    -2.3843    1.5247   -4.2571 O.3      1 ZINC000003833821   -0.5600
31     H31     0.2234    1.8336   -0.8242 H        1 ZINC000003833821    0.0500
32     H32    -1.5370    2.0538   -0.6796 H        1 ZINC000003833821    0.0500
33     H33    -0.5299    1.9497    0.7844 H        1 ZINC000003833821    0.1100
34     H34    -2.9954    0.0975   -0.2297 H        1 ZINC000003833821    0.0700
35     H35    -2.2798   -1.3554    0.5220 H        1 ZINC000003833821    0.0800
36     H36    -2.9051    2.1857    1.0650 H        1 ZINC000003833821    0.3700
37     H37     1.2110   -1.3726    3.1262 H        1 ZINC000003833821    0.0700
38     H38     2.3476   -0.2184    2.3907 H        1 ZINC000003833821    0.0800
39     H39     2.1489    0.0504    4.8876 H        1 ZINC000003833821    0.0800
40     H40     1.6786    1.5192    3.9925 H        1 ZINC000003833821    0.0900
41     H41     0.8001   -0.1905    6.6672 H        1 ZINC000003833821    0.1400
42     H42    -3.5858    0.1464    6.3340 H        1 ZINC000003833821    0.1400
43     H43    -3.3498    0.8147    4.0707 H        1 ZINC000003833821    0.1300
44     H44    -0.6418    2.8297    4.4518 H        1 ZINC000003833821    0.0400
45     H45    -0.2249    2.3499    2.7892 H        1 ZINC000003833821    0.0700
46     H46    -1.9242    2.6404    3.2321 H        1 ZINC000003833821    0.1000
47     H47     1.8726    0.5673   -0.1838 H        1 ZINC000003833821    0.0700
48     H48     2.2620   -1.1594    0.1095 H        1 ZINC000003833821    0.0700
49     H49     1.4475   -0.1937   -2.3704 H        1 ZINC000003833821    0.0800
50     H50     1.1406   -1.8685   -1.8284 H        1 ZINC000003833821    0.0800
51     H51    -1.1493   -2.1614   -2.6099 H        1 ZINC000003833821    0.3800
52     H52    -2.5248   -0.4619   -3.7073 H        1 ZINC000003833821    0.0800
53     H53    -3.0233    0.7139   -2.4674 H        1 ZINC000003833821    0.0800
54     H54    -3.2534    1.5969   -4.6749 H        1 ZINC000003833821    0.3900
@<TRIPOS>BOND
1     1     2     1
2     1     31    1
3     1     32    1
4     1     33    1
5     2     21    1
6     2     25    1
7     2     3     1
8     3     4     1
9     3     34    1
10    3     35    1
11    4     5     1
12    4     6     1
13    4     7     1
14    6     36    1
15    7     8     1
16    7     19    1
17    7     9     1
18    9     10    1
19    9     11    1
20    9     21    1
21    11    12    1
22    11    37    1
23    11    38    1
24    12    13    1
25    12    39    1
26    12    40    1
27    13    19    1
28    13    14    2
29    14    15    1
30    14    41    1
31    15    16    2
32    15    17    1
33    17    18    2
34    17    42    1
35    18    19    1
36    18    43    1
37    19    20    1
38    20    44    1
39    20    45    1
40    20    46    1
41    21    22    1
42    21    23    1
43    23    24    1
44    23    47    1
45    23    48    1
46    24    25    1
47    24    49    1
48    24    50    1
49    25    26    1
50    25    27    1
51    26    51    1
52    27    28    2
53    27    29    1
54    29    30    1
55    29    52    1
56    29    53    1
57    30    54    1
@<TRIPOS>SUBSTRUCTURE
1   ZINC000003833821 1     RESIDUE    1   A     ZIN   1
