@<TRIPOS>MOLECULE
ZINC000072267023
65    67    1     0     0
SMALL
USER_CHARGES
@<TRIPOS>ATOM
1      C1     -1.9195    1.5419   -1.6719 C.3      1 ZINC000072267023   -0.1500
2      C2     -1.9535    0.0244   -1.8643 C.3      1 ZINC000072267023   -0.1300
3      C3     -0.6247   -0.4439   -2.4607 C.3      1 ZINC000072267023   -0.1200
4      C4     -0.6586   -1.9614   -2.6531 C.3      1 ZINC000072267023   -0.1200
5      C5      0.6702   -2.4297   -3.2496 C.3      1 ZINC000072267023   -0.1200
6      C6      0.6363   -3.9472   -3.4420 C.3      1 ZINC000072267023   -0.1000
7      C7      1.9651   -4.4155   -4.0385 C.3      1 ZINC000072267023   -0.1400
8      C8      1.9317   -5.9102   -4.2280 C.2      1 ZINC000072267023    0.5300
9      O9      0.9424   -6.5389   -3.9166 O.2      1 ZINC000072267023   -0.5400
10     N10     3.0011   -6.5482   -4.7435 N.am     1 ZINC000072267023   -0.7100
11     C11     3.0144   -8.0111   -4.8203 C.3      1 ZINC000072267023    0.1200
12     H12     2.0438   -8.4000   -4.5124 H        1 ZINC000072267023    0.1100
13     C13     4.1011   -8.5606   -3.8940 C.3      1 ZINC000072267023    0.0400
14     N14     3.8925   -8.0447   -2.5345 N.3      1 ZINC000072267023   -0.5100
15     C15     2.7595   -8.7382   -1.8700 C.3      1 ZINC000072267023    0.0300
16     C16     3.0181   -8.4776   -0.3647 C.3      1 ZINC000072267023   -0.1200
17     C17     4.5579   -8.5653   -0.2582 C.3      1 ZINC000072267023   -0.1300
18     C18     5.0755   -8.2987   -1.6838 C.3      1 ZINC000072267023    0.0400
19     C19     3.3041   -8.4436   -6.2590 C.3      1 ZINC000072267023    0.1400
20     H20     3.2264   -9.5282   -6.3350 H        1 ZINC000072267023    0.1200
21     O21     4.6238   -8.0339   -6.6231 O.3      1 ZINC000072267023   -0.5500
22     C22     2.3050   -7.8023   -7.1872 C.ar     1 ZINC000072267023   -0.1100
23     C23     2.5317   -6.5274   -7.6704 C.ar     1 ZINC000072267023   -0.1000
24     C24     1.6165   -5.9348   -8.5202 C.ar     1 ZINC000072267023   -0.1100
25     C25     0.4684   -6.6184   -8.8904 C.ar     1 ZINC000072267023    0.0500
26     O26    -0.4277   -6.0189   -9.7213 O.3      1 ZINC000072267023   -0.3100
27     C27    -1.3797   -6.8729  -10.3648 C.3      1 ZINC000072267023    0.0200
28     C28    -1.9553   -7.8304   -9.3126 C.3      1 ZINC000072267023    0.0200
29     O29    -0.8757   -8.5929   -8.7620 O.3      1 ZINC000072267023   -0.3100
30     C30     0.2422   -7.9022   -8.4074 C.ar     1 ZINC000072267023    0.0600
31     C31     1.1660   -8.4922   -7.5583 C.ar     1 ZINC000072267023   -0.1000
32     H32    -1.1054    1.8043   -0.9962 H        1 ZINC000072267023    0.0500
33     H33    -1.7627    2.0269   -2.6354 H        1 ZINC000072267023    0.0500
34     H34    -2.8662    1.8755   -1.2469 H        1 ZINC000072267023    0.0500
35     H35    -2.1103   -0.4606   -0.9008 H        1 ZINC000072267023    0.0600
36     H36    -2.7676   -0.2381   -2.5399 H        1 ZINC000072267023    0.0600
37     H37    -0.4679    0.0411   -3.4242 H        1 ZINC000072267023    0.0600
38     H38     0.1894   -0.1815   -1.7851 H        1 ZINC000072267023    0.0600
39     H39    -0.8154   -2.4464   -1.6897 H        1 ZINC000072267023    0.0600
40     H40    -1.4727   -2.2238   -3.3288 H        1 ZINC000072267023    0.0600
41     H41     0.8270   -1.9447   -4.2131 H        1 ZINC000072267023    0.0600
42     H42     1.4843   -2.1673   -2.5740 H        1 ZINC000072267023    0.0600
43     H43     0.4795   -4.4322   -2.4785 H        1 ZINC000072267023    0.0700
44     H44    -0.1778   -4.2096   -4.1176 H        1 ZINC000072267023    0.0700
45     H45     2.1219   -3.9305   -5.0020 H        1 ZINC000072267023    0.0900
46     H46     2.7792   -4.1531   -3.3628 H        1 ZINC000072267023    0.0900
47     H47     3.7619   -6.0388   -5.0636 H        1 ZINC000072267023    0.3900
48     H48     4.0512   -9.6494   -3.8811 H        1 ZINC000072267023    0.0500
49     H49     5.0801   -8.2461   -4.2557 H        1 ZINC000072267023    0.0900
50     H50     1.8086   -8.3034   -2.1778 H        1 ZINC000072267023    0.0900
51     H51     2.7829   -9.8065   -2.0850 H        1 ZINC000072267023    0.0400
52     H52     2.6676   -7.4858   -0.0791 H        1 ZINC000072267023    0.0700
53     H53     2.5448   -9.2460    0.2466 H        1 ZINC000072267023    0.0700
54     H54     4.9335   -7.8069    0.4286 H        1 ZINC000072267023    0.0700
55     H55     4.8582   -9.5592    0.0736 H        1 ZINC000072267023    0.0700
56     H56     5.6169   -9.1704   -2.0514 H        1 ZINC000072267023    0.0400
57     H57     5.7279   -7.4255   -1.6848 H        1 ZINC000072267023    0.0800
58     H58     4.7653   -7.0784   -6.5784 H        1 ZINC000072267023    0.3700
59     H59     3.4253   -5.9931   -7.3833 H        1 ZINC000072267023    0.1300
60     H60     1.7958   -4.9382   -8.8959 H        1 ZINC000072267023    0.1400
61     H61    -2.1821   -6.2720  -10.7929 H        1 ZINC000072267023    0.1200
62     H62    -0.8878   -7.4445  -11.1519 H        1 ZINC000072267023    0.0800
63     H63    -2.4419   -7.2587   -8.5224 H        1 ZINC000072267023    0.0800
64     H64    -2.6770   -8.4999   -9.7805 H        1 ZINC000072267023    0.1200
65     H65     0.9936   -9.4902   -7.1832 H        1 ZINC000072267023    0.1300
@<TRIPOS>BOND
1     1     2     1
2     1     32    1
3     1     33    1
4     1     34    1
5     2     3     1
6     2     35    1
7     2     36    1
8     3     4     1
9     3     37    1
10    3     38    1
11    4     5     1
12    4     39    1
13    4     40    1
14    5     6     1
15    5     41    1
16    5     42    1
17    6     7     1
18    6     43    1
19    6     44    1
20    7     8     1
21    7     45    1
22    7     46    1
23    8     9     2
24    8     10    am
25    10    11    1
26    10    47    1
27    11    12    1
28    11    13    1
29    11    19    1
30    13    14    1
31    13    48    1
32    13    49    1
33    14    18    1
34    14    15    1
35    15    16    1
36    15    50    1
37    15    51    1
38    16    17    1
39    16    52    1
40    16    53    1
41    17    18    1
42    17    54    1
43    17    55    1
44    18    56    1
45    18    57    1
46    19    20    1
47    19    21    1
48    19    22    1
49    21    58    1
50    22    31    ar
51    22    23    ar
52    23    24    ar
53    23    59    1
54    24    25    ar
55    24    60    1
56    25    30    ar
57    25    26    1
58    26    27    1
59    27    28    1
60    27    61    1
61    27    62    1
62    28    29    1
63    28    63    1
64    28    64    1
65    29    30    1
66    30    31    ar
67    31    65    1
@<TRIPOS>SUBSTRUCTURE
1   ZINC000072267023 1     RESIDUE    1   A     ZIN   1
