@<TRIPOS>MOLECULE
ZINC000012503068
59    63    1     0     0
SMALL
USER_CHARGES
@<TRIPOS>ATOM
1      O1      0.5068    0.5036    0.3609 O.2      1 ZINC000012503068   -0.4700
2      C2      0.1220    1.6472    0.2992 C.2      1 ZINC000012503068    0.4300
3      O3      0.9884    2.6573    0.4748 O.3      1 ZINC000012503068   -0.3300
4      C4      2.3719    2.3014    0.7351 C.3      1 ZINC000012503068    0.0700
5      C5      3.1251    2.1817   -0.5930 C.3      1 ZINC000012503068   -0.1600
6      C6      3.1940    3.5709   -1.2507 C.3      1 ZINC000012503068    0.0300
7      H7      3.6022    3.5299   -2.2606 H        1 ZINC000012503068    0.1500
8      C8      1.7685    4.1735   -1.2157 C.3      1 ZINC000012503068   -0.1400
9      C9      1.6856    4.9130    0.1366 C.3      1 ZINC000012503068   -0.1300
10     C10     3.0686    4.6898    0.7953 C.3      1 ZINC000012503068    0.0400
11     H11     3.3825    5.5411    1.3994 H        1 ZINC000012503068    0.1500
12     C12     3.0204    3.3821    1.6051 C.3      1 ZINC000012503068   -0.1400
13     N13     3.9900    4.4409   -0.3563 N.4      1 ZINC000012503068   -0.2700
14     C14     5.2144    3.7635    0.0958 C.3      1 ZINC000012503068   -0.0300
15     C15     6.3324    4.3248   -0.8208 C.3      1 ZINC000012503068   -0.1400
16     C16     5.8862    5.8010   -0.9963 C.3      1 ZINC000012503068   -0.1400
17     C17     4.3446    5.6980   -1.0231 C.3      1 ZINC000012503068   -0.0100
18     C18    -1.3295    1.9397    0.0189 C.3      1 ZINC000012503068    0.2500
19     O19    -1.7287    3.1058    0.7420 O.3      1 ZINC000012503068   -0.5300
20     C20    -1.5185    2.1751   -1.4576 C.ar     1 ZINC000012503068   -0.0900
21     C21    -0.8528    1.3832   -2.3745 C.ar     1 ZINC000012503068   -0.1200
22     C22    -1.0262    1.5991   -3.7288 C.ar     1 ZINC000012503068   -0.1200
23     C23    -1.8655    2.6065   -4.1662 C.ar     1 ZINC000012503068   -0.1000
24     C24    -2.5319    3.3978   -3.2494 C.ar     1 ZINC000012503068   -0.1200
25     C25    -2.3619    3.1792   -1.8950 C.ar     1 ZINC000012503068   -0.0800
26     C26    -2.1710    0.7672    0.4524 C.ar     1 ZINC000012503068   -0.1300
27     C27    -3.0783    0.9119    1.4853 C.ar     1 ZINC000012503068   -0.1000
28     C28    -3.8503   -0.1636    1.8830 C.ar     1 ZINC000012503068   -0.1200
29     C29    -3.7152   -1.3838    1.2475 C.ar     1 ZINC000012503068   -0.1000
30     C30    -2.8086   -1.5283    0.2140 C.ar     1 ZINC000012503068   -0.1200
31     C31    -2.0397   -0.4516   -0.1865 C.ar     1 ZINC000012503068   -0.0800
32     H32     2.4078    1.3456    1.2579 H        1 ZINC000012503068    0.1100
33     H33     4.1346    1.8142   -0.4087 H        1 ZINC000012503068    0.1100
34     H34     2.5974    1.4915   -1.2514 H        1 ZINC000012503068    0.1200
35     H35     1.6322    4.8736   -2.0399 H        1 ZINC000012503068    0.0900
36     H36     1.0207    3.3818   -1.2616 H        1 ZINC000012503068    0.1200
37     H37     1.5086    5.9767   -0.0228 H        1 ZINC000012503068    0.0900
38     H38     0.8971    4.4849    0.7555 H        1 ZINC000012503068    0.1300
39     H39     2.4136    3.5279    2.4988 H        1 ZINC000012503068    0.1200
40     H40     4.0314    3.0917    1.8908 H        1 ZINC000012503068    0.1100
41     H41     5.4201    4.0059    1.1384 H        1 ZINC000012503068    0.1300
42     H42     5.1223    2.6851   -0.0337 H        1 ZINC000012503068    0.1400
43     H43     7.3044    4.2667   -0.3309 H        1 ZINC000012503068    0.1100
44     H44     6.3486    3.8056   -1.7791 H        1 ZINC000012503068    0.1000
45     H45     6.2174    6.4066   -0.1527 H        1 ZINC000012503068    0.1000
46     H46     6.2617    6.2080   -1.9352 H        1 ZINC000012503068    0.1100
47     H47     3.9901    5.6858   -2.0538 H        1 ZINC000012503068    0.1300
48     H48     3.9058    6.5401   -0.4880 H        1 ZINC000012503068    0.1300
49     H49    -1.6338    3.0256    1.7010 H        1 ZINC000012503068    0.3900
50     H50    -0.1971    0.5961   -2.0327 H        1 ZINC000012503068    0.1200
51     H51    -0.5056    0.9808   -4.4451 H        1 ZINC000012503068    0.1300
52     H52    -2.0004    2.7756   -5.2244 H        1 ZINC000012503068    0.1300
53     H53    -3.1874    4.1852   -3.5911 H        1 ZINC000012503068    0.1300
54     H54    -2.8825    3.7974   -1.1787 H        1 ZINC000012503068    0.1400
55     H55    -3.1838    1.8652    1.9818 H        1 ZINC000012503068    0.1300
56     H56    -4.5586   -0.0508    2.6904 H        1 ZINC000012503068    0.1300
57     H57    -4.3178   -2.2243    1.5587 H        1 ZINC000012503068    0.1300
58     H58    -2.7029   -2.4817   -0.2822 H        1 ZINC000012503068    0.1300
59     H59    -1.3314   -0.5645   -0.9939 H        1 ZINC000012503068    0.1200
@<TRIPOS>BOND
1     1     2     2
2     2     3     1
3     2     18    1
4     3     4     1
5     4     12    1
6     4     5     1
7     4     32    1
8     5     6     1
9     5     33    1
10    5     34    1
11    6     7     1
12    6     13    1
13    6     8     1
14    8     9     1
15    8     35    1
16    8     36    1
17    9     10    1
18    9     37    1
19    9     38    1
20    10    11    1
21    10    12    1
22    10    13    1
23    12    39    1
24    12    40    1
25    13    17    1
26    13    14    1
27    14    15    1
28    14    41    1
29    14    42    1
30    15    16    1
31    15    43    1
32    15    44    1
33    16    17    1
34    16    45    1
35    16    46    1
36    17    47    1
37    17    48    1
38    18    19    1
39    18    20    1
40    18    26    1
41    19    49    1
42    20    25    ar
43    20    21    ar
44    21    22    ar
45    21    50    1
46    22    23    ar
47    22    51    1
48    23    24    ar
49    23    52    1
50    24    25    ar
51    24    53    1
52    25    54    1
53    26    31    ar
54    26    27    ar
55    27    28    ar
56    27    55    1
57    28    29    ar
58    28    56    1
59    29    30    ar
60    29    57    1
61    30    31    ar
62    30    58    1
63    31    59    1
@<TRIPOS>SUBSTRUCTURE
1   ZINC000012503068 1     RESIDUE    1   A     ZIN   1
