@<TRIPOS>MOLECULE
ZINC000000601281
62    64    1     0     0
SMALL
USER_CHARGES
@<TRIPOS>ATOM
1      C1     -3.9637   -1.0312   -2.7905 C.3      1 ZINC000000601281   -0.1500
2      C2     -3.5892   -1.0511   -1.3072 C.3      1 ZINC000000601281   -0.1600
3      C3     -2.5093   -2.0763   -1.0754 C.2      1 ZINC000000601281    0.5100
4      O4     -2.4322   -3.0493   -1.7955 O.2      1 ZINC000000601281   -0.4900
5      N5     -1.6293   -1.9121   -0.0679 N.am     1 ZINC000000601281   -0.5400
6      C6     -1.8932   -0.9866    0.9478 C.ar     1 ZINC000000601281    0.1800
7      C7     -0.9102   -0.6750    1.8779 C.ar     1 ZINC000000601281   -0.1800
8      C8     -1.1740    0.2389    2.8792 C.ar     1 ZINC000000601281   -0.0900
9      C9     -2.4154    0.8431    2.9566 C.ar     1 ZINC000000601281   -0.1500
10     C10    -3.3965    0.5346    2.0322 C.ar     1 ZINC000000601281   -0.0800
11     C11    -3.1369   -0.3735    1.0245 C.ar     1 ZINC000000601281   -0.2100
12     C12    -0.3962   -2.7026   -0.0363 C.3      1 ZINC000000601281    0.1700
13     C13    -0.3519   -3.5296    1.2502 C.3      1 ZINC000000601281    0.0500
14     O14    -1.4841   -4.4003    1.2960 O.3      1 ZINC000000601281   -0.3800
15     C15    -1.5388   -5.2216    2.4641 C.3      1 ZINC000000601281    0.0300
16     C16    -0.3563   -3.6372   -1.2485 C.3      1 ZINC000000601281   -0.1000
17     C17    -0.3402   -2.8015   -2.5305 C.3      1 ZINC000000601281    0.0400
18     N18     0.8361   -1.9225   -2.5286 N.3      1 ZINC000000601281   -0.5400
19     C19     0.9599   -1.2059   -3.8049 C.3      1 ZINC000000601281    0.0400
20     C20     2.3156   -0.4991   -3.8636 C.3      1 ZINC000000601281    0.1600
21     N21     2.4390    0.2156   -5.1365 N.am     1 ZINC000000601281   -0.4700
22     N22     2.9614   -0.3004   -6.3287 N.2      1 ZINC000000601281    0.0200
23     N23     2.9166    0.5703   -7.2055 N.2      1 ZINC000000601281    0.0200
24     N24     2.3606    1.7386   -6.6703 N.am     1 ZINC000000601281   -0.4700
25     C25     2.1355    2.9974   -7.3850 C.3      1 ZINC000000601281    0.1500
26     C26     3.3728    3.8876   -7.2522 C.3      1 ZINC000000601281   -0.1700
27     C27     2.0643    1.4908   -5.3761 C.2      1 ZINC000000601281    0.6400
28     O28     1.5654    2.2666   -4.5803 O.2      1 ZINC000000601281   -0.5300
29     C29     0.7959   -0.9841   -1.3998 C.3      1 ZINC000000601281    0.0600
30     C30     0.8137   -1.7655   -0.0841 C.3      1 ZINC000000601281   -0.1500
31     H31    -4.7448   -0.2897   -2.9582 H        1 ZINC000000601281    0.0700
32     H32    -3.0858   -0.7747   -3.3835 H        1 ZINC000000601281    0.0500
33     H33    -4.3273   -2.0152   -3.0866 H        1 ZINC000000601281    0.0700
34     H34    -3.2256   -0.0671   -1.0111 H        1 ZINC000000601281    0.1000
35     H35    -4.4671   -1.3076   -0.7142 H        1 ZINC000000601281    0.1100
36     H36     0.0593   -1.1470    1.8185 H        1 ZINC000000601281    0.1400
37     H37    -0.4099    0.4817    3.6029 H        1 ZINC000000601281    0.1300
38     H38    -2.6193    1.5571    3.7408 H        1 ZINC000000601281    0.1200
39     H39    -4.3654    1.0076    2.0957 H        1 ZINC000000601281    0.1300
40     H40    -3.9036   -0.6141    0.3029 H        1 ZINC000000601281    0.1600
41     H41     0.5629   -4.1218    1.2701 H        1 ZINC000000601281    0.0600
42     H42    -0.3717   -2.8623    2.1119 H        1 ZINC000000601281    0.0600
43     H43    -0.6486   -5.8489    2.5092 H        1 ZINC000000601281    0.0400
44     H44    -1.5832   -4.5895    3.3510 H        1 ZINC000000601281    0.0400
45     H45    -2.4264   -5.8529    2.4231 H        1 ZINC000000601281    0.0900
46     H46     0.5422   -4.2527   -1.2040 H        1 ZINC000000601281    0.0700
47     H47    -1.2379   -4.2782   -1.2430 H        1 ZINC000000601281    0.1100
48     H48    -0.2974   -3.4638   -3.3952 H        1 ZINC000000601281    0.0700
49     H49    -1.2455   -2.1966   -2.5810 H        1 ZINC000000601281    0.0700
50     H50     0.8841   -1.9155   -4.6289 H        1 ZINC000000601281    0.0900
51     H51     0.1617   -0.4681   -3.8862 H        1 ZINC000000601281    0.0400
52     H52     2.3913    0.2105   -3.0397 H        1 ZINC000000601281    0.1000
53     H53     3.1138   -1.2369   -3.7823 H        1 ZINC000000601281    0.1100
54     H54     1.9495    2.7888   -8.4386 H        1 ZINC000000601281    0.1000
55     H55     1.2727    3.5085   -6.9579 H        1 ZINC000000601281    0.1000
56     H56     3.2054    4.8242   -7.7840 H        1 ZINC000000601281    0.0800
57     H57     3.5589    4.0962   -6.1986 H        1 ZINC000000601281    0.0600
58     H58     4.2357    3.3765   -7.6793 H        1 ZINC000000601281    0.0700
59     H59     1.6640   -0.3263   -1.4433 H        1 ZINC000000601281    0.0800
60     H60    -0.1147   -0.3876   -1.4557 H        1 ZINC000000601281    0.0400
61     H61     0.7681   -1.0692    0.7533 H        1 ZINC000000601281    0.1000
62     H62     1.7306   -2.3515   -0.0213 H        1 ZINC000000601281    0.0900
@<TRIPOS>BOND
1     1     2     1
2     1     31    1
3     1     32    1
4     1     33    1
5     2     3     1
6     2     34    1
7     2     35    1
8     3     4     2
9     3     5     am
10    5     6     1
11    5     12    1
12    6     11    ar
13    6     7     ar
14    7     8     ar
15    7     36    1
16    8     9     ar
17    8     37    1
18    9     10    ar
19    9     38    1
20    10    11    ar
21    10    39    1
22    11    40    1
23    12    30    1
24    12    13    1
25    12    16    1
26    13    14    1
27    13    41    1
28    13    42    1
29    14    15    1
30    15    43    1
31    15    44    1
32    15    45    1
33    16    17    1
34    16    46    1
35    16    47    1
36    17    18    1
37    17    48    1
38    17    49    1
39    18    19    1
40    18    29    1
41    19    20    1
42    19    50    1
43    19    51    1
44    20    21    1
45    20    52    1
46    20    53    1
47    21    27    am
48    21    22    1
49    22    23    2
50    23    24    1
51    24    25    1
52    24    27    am
53    25    26    1
54    25    54    1
55    25    55    1
56    26    56    1
57    26    57    1
58    26    58    1
59    27    28    2
60    29    30    1
61    29    59    1
62    29    60    1
63    30    61    1
64    30    62    1
@<TRIPOS>SUBSTRUCTURE
1   ZINC000000601281 1     RESIDUE    1   A     ZIN   1
