@<TRIPOS>MOLECULE
ZINC000000113446
29   29    0    0    0
SMALL
USER_CHARGES
NO_NAME
@<TRIPOS>ATOM
1 C1       -0.0187     1.5258     0.0104 C.3    1 <0>      -0.1500
2 C2        0.0021    -0.0041     0.0020 C.3    1 <0>      -0.6100
3 S3        0.8794    -0.6050     1.4716 S.o2   1 <0>       2.4200
4 O4        2.2414    -0.2105     1.3787 O.2    1 <0>      -0.9100
5 O5        0.1303    -0.2460     2.6245 O.2    1 <0>      -0.9300
6 C6        0.7827    -2.4036     1.2565 C.3    1 <0>      -0.6500
7 C7        1.4848    -3.0957     2.4265 C.3    1 <0>       0.1000
8 N8        1.4067    -4.5482     2.2527 N.pl3  1 <0>      -0.4300
9 C9        0.4251    -5.3578     2.7055 C.2    1 <0>       0.2800
10 C10      -0.7882    -4.9170     3.4830 C.3    1 <0>      -0.0900
11 N11       0.7015    -6.5850     2.3581 N.2    1 <0>      -0.4800
12 C12       1.8575    -6.6026     1.6782 C.2    1 <0>       0.1100
13 C13       2.3119    -5.3376     1.5961 C.2    1 <0>      -0.0100
14 N14       3.5562    -4.8882     0.9319 N.pl3  1 <0>       0.0600
15 O15       4.2833    -5.6998     0.3877 O.2    1 <0>      -0.1300
16 O16       3.8529    -3.7069     0.9296 O.2    1 <0>      -0.1700
17 H17       1.0039     1.9031     0.0027 H      1 <0>       0.0800
18 H18      -0.5459     1.8868    -0.8726 H      1 <0>       0.0900
19 H19      -0.5289     1.8773     0.9072 H      1 <0>       0.0800
20 H20      -1.0205    -0.3814     0.0098 H      1 <0>       0.1300
21 H21       0.5123    -0.3556    -0.8948 H      1 <0>       0.1400
22 H22      -0.2629    -2.7103     1.2273 H      1 <0>       0.1400
23 H23       1.2699    -2.6845     0.3228 H      1 <0>       0.1400
24 H24       2.5303    -2.7889     2.4557 H      1 <0>       0.1300
25 H25       0.9975    -2.8147     3.3602 H      1 <0>       0.1200
26 H26      -1.5959    -4.6779     2.7912 H      1 <0>       0.1000
27 H27      -1.1053    -5.7205     4.1479 H      1 <0>       0.1100
28 H28      -0.5411    -4.0340     4.0722 H      1 <0>       0.0900
29 H29       2.3374    -7.4774     1.2648 H      1 <0>       0.2000
@<TRIPOS>BOND
1    1    2 1
2    1   17 1
3    1   18 1
4    1   19 1
5    2    3 1
6    2   20 1
7    2   21 1
8    3    4 2
9    3    5 2
10    3    6 1
11    6    7 1
12    6   22 1
13    6   23 1
14    7    8 1
15    7   24 1
16    7   25 1
17    8   13 1
18    8    9 1
19    9   10 1
20    9   11 2
21   10   26 1
22   10   27 1
23   10   28 1
24   11   12 1
25   12   13 2
26   12   29 1
27   13   14 1
28   14   15 2
29   14   16 2
