@<TRIPOS>MOLECULE
ZINC000034636383
55   57    0    0    0
SMALL
USER_CHARGES
NO_NAME
@<TRIPOS>ATOM
1 C1       -0.0173     1.4248     0.0099 C.3    1 <0>       0.0200
2 O2        0.0021    -0.0041     0.0020 O.3    1 <0>      -0.3100
3 C3        0.6058    -0.6071    -1.0557 C.ar   1 <0>       0.1500
4 C4        1.1730     0.1607    -2.0624 C.ar   1 <0>      -0.2100
5 C5        1.7865    -0.4547    -3.1363 C.ar   1 <0>      -0.0700
6 C6        1.8352    -1.8346    -3.2086 C.ar   1 <0>      -0.1400
7 C7        2.5046    -2.5033    -4.3815 C.3    1 <0>      -0.0800
8 C8        3.9857    -2.7227    -4.0663 C.3    1 <0>       0.0600
9 C9        4.6553    -1.3735    -3.7981 C.3    1 <0>      -0.1800
10 C10       4.1173    -3.6125    -2.8286 C.3    1 <0>      -0.1800
11 N11       4.6383    -3.3746    -5.2096 N.4    1 <0>      -0.5000
12 H12       4.1966    -4.2644    -5.3866 H      1 <0>       0.4300
13 H13       4.5514    -2.7878    -6.0259 H      1 <0>       0.4300
14 C14       6.0602    -3.5852    -4.9070 C.3    1 <0>      -0.0500
15 C15       6.7399    -4.2641    -6.0978 C.3    1 <0>       0.1400
16 H16       6.6461    -3.6303    -6.9796 H      1 <0>       0.1400
17 O17       6.1145    -5.5243    -6.3484 O.3    1 <0>      -0.5400
18 C18       8.1987    -4.4802    -5.7874 C.ar   1 <0>      -0.1100
19 C19       8.6260    -5.6941    -5.2811 C.ar   1 <0>      -0.1300
20 C20       9.9680    -5.8968    -4.9939 C.ar   1 <0>       0.1400
21 O21      10.3827    -7.0921    -4.4955 O.3    1 <0>      -0.4900
22 C22      10.8873    -4.8820    -5.2151 C.ar   1 <0>      -0.1400
23 C23      10.4608    -3.6661    -5.7225 C.ar   1 <0>       0.1300
24 C24       9.1125    -3.4661    -6.0141 C.ar   1 <0>       0.0800
25 O25       8.7063    -2.2656    -6.5099 O.3    1 <0>      -0.3000
26 C26       9.4212    -1.1107    -6.0629 C.3    1 <0>       0.0500
27 C27      10.9039    -1.3729    -6.1372 C.2    1 <0>       0.4900
28 O28      11.6727    -0.4625    -6.3643 O.2    1 <0>      -0.4900
29 N29      11.3737    -2.6274    -5.9542 N.am   1 <0>      -0.6600
30 C30       1.2710    -2.6021    -2.2063 C.ar   1 <0>      -0.0700
31 C31       0.6609    -1.9915    -1.1277 C.ar   1 <0>      -0.1500
32 H32       1.0053     1.8021     0.0021 H      1 <0>       0.0600
33 H33      -0.5445     1.7859    -0.8732 H      1 <0>       0.0600
34 H34      -0.5275     1.7763     0.9067 H      1 <0>       0.1100
35 H35       1.1347     1.2385    -2.0068 H      1 <0>       0.1300
36 H36       2.2283     0.1425    -3.9203 H      1 <0>       0.1300
37 H37       2.0276    -3.4646    -4.5726 H      1 <0>       0.1000
38 H38       2.4108    -1.8695    -5.2632 H      1 <0>       0.1000
39 H39       4.1711    -0.8898    -2.9497 H      1 <0>       0.1100
40 H40       5.7104    -1.5298    -3.5735 H      1 <0>       0.0800
41 H41       4.5615    -0.7396    -4.6798 H      1 <0>       0.0800
42 H42       3.6403    -4.5737    -3.0197 H      1 <0>       0.0800
43 H43       5.1725    -3.7688    -2.6041 H      1 <0>       0.0800
44 H44       3.6331    -3.1288    -1.9803 H      1 <0>       0.1100
45 H45       6.5373    -2.6240    -4.7159 H      1 <0>       0.1500
46 H46       6.1541    -4.2191    -4.0253 H      1 <0>       0.1400
47 H47       6.1597    -6.1406    -5.6046 H      1 <0>       0.3900
48 H48       7.9128    -6.4865    -5.1084 H      1 <0>       0.1400
49 H49      10.6336    -7.7350    -5.1729 H      1 <0>       0.4000
50 H50      11.9322    -5.0395    -4.9919 H      1 <0>       0.1500
51 H51       9.1707    -0.2607    -6.6978 H      1 <0>       0.1500
52 H52       9.1432    -0.8879    -5.0328 H      1 <0>       0.1000
53 H53      12.3273    -2.8041    -5.9761 H      1 <0>       0.4200
54 H54       1.3106    -3.6797    -2.2649 H      1 <0>       0.1300
55 H55       0.2204    -2.5913    -0.3451 H      1 <0>       0.1400
@<TRIPOS>BOND
1    1    2 1
2    1   32 1
3    1   33 1
4    1   34 1
5    2    3 1
6    3   31 ar
7    3    4 ar
8    4    5 ar
9    4   35 1
10    5    6 ar
11    5   36 1
12    6    7 1
13    6   30 ar
14    7    8 1
15    7   37 1
16    7   38 1
17    8    9 1
18    8   10 1
19    8   11 1
20    9   39 1
21    9   40 1
22    9   41 1
23   10   42 1
24   10   43 1
25   10   44 1
26   11   12 1
27   11   13 1
28   11   14 1
29   14   15 1
30   14   45 1
31   14   46 1
32   15   16 1
33   15   17 1
34   15   18 1
35   17   47 1
36   18   24 ar
37   18   19 ar
38   19   20 ar
39   19   48 1
40   20   21 1
41   20   22 ar
42   21   49 1
43   22   23 ar
44   22   50 1
45   23   29 1
46   23   24 ar
47   24   25 1
48   25   26 1
49   26   27 1
50   26   51 1
51   26   52 1
52   27   28 2
53   27   29 am
54   29   53 1
55   30   31 ar
56   30   54 1
57   31   55 1
