@<TRIPOS>MOLECULE
ZINC000001530713
43    44    1     0     0
SMALL
USER_CHARGES
@<TRIPOS>ATOM
1      C1     -0.0187    1.5258    0.0104 C.3      1 ZINC000001530713   -0.1500
2      C2      0.0021   -0.0041    0.0020 C.3      1 ZINC000001530713   -0.1300
3      C3     -1.4333   -0.5336    0.0129 C.3      1 ZINC000001530713   -0.1500
4      C4      0.7182   -0.4975   -1.2568 C.3      1 ZINC000001530713    0.1100
5      H5      0.1910   -0.1364   -2.1398 H        1 ZINC000001530713    0.1200
6      N6      0.7381   -1.9663   -1.2649 N.3      1 ZINC000001530713   -0.8300
7      C7      2.1320    0.0241   -1.2675 C.2      1 ZINC000001530713    0.4700
8      O8      3.0425   -0.6912   -0.9221 O.2      1 ZINC000001530713   -0.5000
9      O9      2.3798    1.2834   -1.6607 O.3      1 ZINC000001530713   -0.3500
10     C10     3.7651    1.7181   -1.6456 C.3      1 ZINC000001530713    0.0700
11     C11     3.8494    3.1696   -2.1222 C.3      1 ZINC000001530713    0.0700
12     O12     3.1769    4.0172   -1.1887 O.3      1 ZINC000001530713   -0.3900
13     C13     3.1968    5.4018   -1.5419 C.3      1 ZINC000001530713    0.3000
14     N14     2.4836    6.1759   -0.5230 N.pl3    1 ZINC000001530713   -0.4600
15     C15     1.8900    5.6778    0.6005 C.2      1 ZINC000001530713    0.2300
16     N16     1.3497    6.6466    1.2802 N.2      1 ZINC000001530713   -0.4200
17     C17     1.5631    7.8200    0.6364 C.2      1 ZINC000001530713   -0.1400
18     C18     2.2958    7.5315   -0.5206 C.2      1 ZINC000001530713    0.3100
19     N19     2.6455    8.5231   -1.3483 N.2      1 ZINC000001530713   -0.5800
20     C20     2.3126    9.7690   -1.0946 C.2      1 ZINC000001530713    0.6600
21     N21     2.6931   10.7524   -1.9728 N.pl3    1 ZINC000001530713   -0.8200
22     N22     1.6000   10.1125    0.0155 N.am     1 ZINC000001530713   -0.6600
23     C23     1.2150    9.1655    0.8995 C.2      1 ZINC000001530713    0.6000
24     O24     0.5774    9.4627    1.8952 O.2      1 ZINC000001530713   -0.5100
25     H25     1.0039    1.9031    0.0027 H        1 ZINC000001530713    0.0700
26     H26    -0.5459    1.8868   -0.8726 H        1 ZINC000001530713    0.0600
27     H27    -0.5289    1.8773    0.9072 H        1 ZINC000001530713    0.0600
28     H28     0.5293   -0.3651    0.8851 H        1 ZINC000001530713    0.0800
29     H29    -1.9605   -0.1726   -0.8702 H        1 ZINC000001530713    0.0600
30     H30    -1.4185   -1.6235    0.0069 H        1 ZINC000001530713    0.0600
31     H31    -1.9435   -0.1821    0.9097 H        1 ZINC000001530713    0.0700
32     H32     1.2218   -2.3259   -0.4556 H        1 ZINC000001530713    0.3500
33     H33    -0.1972   -2.3403   -1.3229 H        1 ZINC000001530713    0.3600
34     H34     4.1577    1.6454   -0.6314 H        1 ZINC000001530713    0.0800
35     H35     4.3524    1.0832   -2.3090 H        1 ZINC000001530713    0.0900
36     H36     4.8952    3.4677   -2.1957 H        1 ZINC000001530713    0.0800
37     H37     3.3765    3.2589   -3.1002 H        1 ZINC000001530713    0.0700
38     H38     4.2291    5.7462   -1.6034 H        1 ZINC000001530713    0.0800
39     H39     2.7104    5.5374   -2.5078 H        1 ZINC000001530713    0.0800
40     H40     1.8713    4.6355    0.8828 H        1 ZINC000001530713    0.2200
41     H41     3.2003   10.5234   -2.7673 H        1 ZINC000001530713    0.4300
42     H42     2.4549   11.6765   -1.7991 H        1 ZINC000001530713    0.4200
43     H43     1.3709   11.0417    0.1734 H        1 ZINC000001530713    0.4200
@<TRIPOS>BOND
1     1     2     1
2     1     25    1
3     1     26    1
4     1     27    1
5     2     3     1
6     2     4     1
7     2     28    1
8     3     29    1
9     3     30    1
10    3     31    1
11    4     5     1
12    4     6     1
13    4     7     1
14    6     32    1
15    6     33    1
16    7     8     2
17    7     9     1
18    9     10    1
19    10    11    1
20    10    34    1
21    10    35    1
22    11    12    1
23    11    36    1
24    11    37    1
25    12    13    1
26    13    14    1
27    13    38    1
28    13    39    1
29    14    18    1
30    14    15    1
31    15    16    2
32    15    40    1
33    16    17    1
34    17    23    1
35    17    18    2
36    18    19    1
37    19    20    2
38    20    21    1
39    20    22    1
40    21    41    1
41    21    42    1
42    22    23    am
43    22    43    1
44    23    24    2
@<TRIPOS>SUBSTRUCTURE
1   ZINC000001530713 1     RESIDUE    1   A     ZIN   1
