@<TRIPOS>MOLECULE
ZINC000035999642
33    34    1     0     0
SMALL
USER_CHARGES
@<TRIPOS>ATOM
1      C1     -0.2859    1.5724    0.5822 C.3      1 ZINC000035999642   -0.0700
2      N2     -0.0717    0.1805    0.1642 N.4      1 ZINC000035999642   -0.4900
3      H3     -0.9579   -0.3009    0.1313 H        1 ZINC000035999642    0.4300
4      H4      0.3532    0.1657   -0.7508 H        1 ZINC000035999642    0.4300
5      C5      0.8138   -0.4890    1.1262 C.3      1 ZINC000035999642    0.0600
6      C6      2.1898    0.1218    1.0574 C.ar     1 ZINC000035999642   -0.1200
7      C7      2.4752    1.0761    0.0996 C.ar     1 ZINC000035999642   -0.1300
8      C8      3.7376    1.6365    0.0364 C.ar     1 ZINC000035999642   -0.0900
9      C9      4.7150    1.2422    0.9306 C.ar     1 ZINC000035999642   -0.0800
10     C10     4.4307    0.2876    1.8892 C.ar     1 ZINC000035999642   -0.0900
11     C11     3.1661   -0.2689    1.9569 C.ar     1 ZINC000035999642    0.0000
12     Cl12    2.8083   -1.4677    3.1604 Cl       1 ZINC000035999642   -0.0400
13     C13     0.8929   -1.9838    0.7991 C.3      1 ZINC000035999642   -0.1400
14     C14    -0.4813   -2.6227    1.0061 C.3      1 ZINC000035999642   -0.1300
15     C15    -0.8825   -2.5243    2.4788 C.3      1 ZINC000035999642   -0.1300
16     C16    -1.0284   -1.0497    2.8692 C.3      1 ZINC000035999642   -0.1700
17     C17     0.2573   -0.3314    2.5240 C.2      1 ZINC000035999642    0.3500
18     O18     0.8251    0.3501    3.3434 O.2      1 ZINC000035999642   -0.3700
19     H19     0.6775    2.0527    0.7532 H        1 ZINC000035999642    0.1400
20     H20    -0.8250    2.1076   -0.1994 H        1 ZINC000035999642    0.1400
21     H21    -0.8690    1.5896    1.5029 H        1 ZINC000035999642    0.1200
22     H22     1.7122    1.3841   -0.5998 H        1 ZINC000035999642    0.1300
23     H23     3.9602    2.3824   -0.7124 H        1 ZINC000035999642    0.1500
24     H24     5.7011    1.6798    0.8803 H        1 ZINC000035999642    0.1500
25     H25     5.1945   -0.0204    2.5879 H        1 ZINC000035999642    0.1500
26     H26     1.2014   -2.1131   -0.2384 H        1 ZINC000035999642    0.1100
27     H27     1.6189   -2.4620    1.4567 H        1 ZINC000035999642    0.1200
28     H28    -1.2185   -2.1028    0.3942 H        1 ZINC000035999642    0.0700
29     H29    -0.4416   -3.6712    0.7107 H        1 ZINC000035999642    0.1100
30     H30    -1.8323   -3.0366    2.6319 H        1 ZINC000035999642    0.1000
31     H31    -0.1145   -2.9896    3.0967 H        1 ZINC000035999642    0.0800
32     H32    -1.8560   -0.6049    2.3167 H        1 ZINC000035999642    0.1000
33     H33    -1.2154   -0.9713    3.9402 H        1 ZINC000035999642    0.1200
@<TRIPOS>BOND
1     1     2     1
2     1     19    1
3     1     20    1
4     1     21    1
5     2     3     1
6     2     4     1
7     2     5     1
8     5     17    1
9     5     6     1
10    5     13    1
11    6     11    ar
12    6     7     ar
13    7     8     ar
14    7     22    1
15    8     9     ar
16    8     23    1
17    9     10    ar
18    9     24    1
19    10    11    ar
20    10    25    1
21    11    12    1
22    13    14    1
23    13    26    1
24    13    27    1
25    14    15    1
26    14    28    1
27    14    29    1
28    15    16    1
29    15    30    1
30    15    31    1
31    16    17    1
32    16    32    1
33    16    33    1
34    17    18    2
@<TRIPOS>SUBSTRUCTURE
1   ZINC000035999642 1     RESIDUE    1   A     ZIN   1
