@<TRIPOS>MOLECULE
ZINC000000005152
28   27    0    0    0
SMALL
USER_CHARGES
NO_NAME
@<TRIPOS>ATOM
1 C1       -0.4632    -2.5239    -1.2488 C.3    1 <0>      -0.1500
2 C2       -1.3896    -2.1269    -0.0976 C.3    1 <0>      -0.1000
3 C3       -0.8599    -2.7180     1.2104 C.3    1 <0>      -0.1500
4 C4       -1.4385    -0.6018     0.0149 C.3    1 <0>      -0.1200
5 C5       -2.1007    -0.0192    -1.2353 C.3    1 <0>      -0.0900
6 H6       -1.5816    -0.3802    -2.1232 H      1 <0>       0.1000
7 C7       -2.0264     1.5083    -1.1869 C.3    1 <0>      -0.0100
8 N8       -0.6226     1.9331    -1.2683 N.4    1 <0>      -0.6300
9 H9       -0.1048     1.5324    -0.5006 H      1 <0>       0.4200
10 H10      -0.2262     1.6191    -2.1415 H      1 <0>       0.4300
11 H11      -0.5724     2.9396    -1.2189 H      1 <0>       0.4300
12 C12      -3.5657    -0.4572    -1.2875 C.3    1 <0>      -0.1800
13 C13      -4.1849     0.0132    -2.5784 C.2    1 <0>       0.4900
14 O14      -3.5164     0.6405    -3.3822 O.co2  1 <0>      -0.7100
15 O15      -5.3544    -0.2337    -2.8191 O.co2  1 <0>      -0.6800
16 H16      -0.3339    -3.6062    -1.2543 H      1 <0>       0.0600
17 H17      -0.9018    -2.2055    -2.1945 H      1 <0>       0.0600
18 H18       0.5061    -2.0428    -1.1176 H      1 <0>       0.0500
19 H19      -2.3920    -2.5094    -0.2895 H      1 <0>       0.0800
20 H20       0.1426    -2.3355     1.4023 H      1 <0>       0.0500
21 H21      -1.5198    -2.4351     2.0305 H      1 <0>       0.0600
22 H22      -0.8250    -3.8045     1.1302 H      1 <0>       0.0600
23 H23      -2.0152    -0.3208     0.8960 H      1 <0>       0.0700
24 H24      -0.4247    -0.2114     0.1045 H      1 <0>       0.0500
25 H25      -2.5817     1.9258    -2.0269 H      1 <0>       0.1600
26 H26      -2.4600     1.8637    -0.2522 H      1 <0>       0.1200
27 H27      -3.6221    -1.5443    -1.2324 H      1 <0>       0.0800
28 H28      -4.1052    -0.0222    -0.4462 H      1 <0>       0.0700
@<TRIPOS>BOND
1    1    2 1
2    1   16 1
3    1   17 1
4    1   18 1
5    2    3 1
6    2    4 1
7    2   19 1
8    3   20 1
9    3   21 1
10    3   22 1
11    4    5 1
12    4   23 1
13    4   24 1
14    5    6 1
15    5    7 1
16    5   12 1
17    7    8 1
18    7   25 1
19    7   26 1
20    8    9 1
21    8   10 1
22    8   11 1
23   12   13 1
24   12   27 1
25   12   28 1
26   13   14 ar
27   13   15 ar
