@<TRIPOS>MOLECULE
ZINC000003831405
49    52    1     0     0
SMALL
USER_CHARGES
@<TRIPOS>ATOM
1      C1     -0.4134    1.3413   -1.0387 C.2      1 ZINC000003831405   -0.1600
2      C2     -0.4541    0.0492   -0.8265 C.2      1 ZINC000003831405   -0.1700
3      C3     -1.6093   -0.7644   -1.3504 C.3      1 ZINC000003831405   -0.0600
4      H4     -2.3943   -0.0972   -1.7062 H        1 ZINC000003831405    0.1000
5      C5     -1.1308   -1.6527   -2.5010 C.3      1 ZINC000003831405   -0.0100
6      N6     -1.3474   -3.0630   -2.1693 N.4      1 ZINC000003831405   -0.3700
7      H7     -1.0203   -3.6261   -2.9401 H        1 ZINC000003831405    0.4200
8      C8     -2.7734   -3.3328   -1.9706 C.3      1 ZINC000003831405   -0.0100
9      C9     -3.3065   -2.5002   -0.8025 C.3      1 ZINC000003831405   -0.1400
10     C10    -2.1606   -1.6555   -0.2297 C.3      1 ZINC000003831405   -0.0900
11     H11    -2.5149   -1.0590    0.6110 H        1 ZINC000003831405    0.1200
12     C12    -1.0420   -2.6025    0.2244 C.3      1 ZINC000003831405   -0.1300
13     C13    -0.5906   -3.4331   -0.9710 C.3      1 ZINC000003831405    0.0100
14     H14    -0.7426   -4.4906   -0.7548 H        1 ZINC000003831405    0.1500
15     C15     0.8946   -3.1773   -1.2351 C.3      1 ZINC000003831405    0.1300
16     H16     1.1761   -3.6233   -2.1890 H        1 ZINC000003831405    0.1300
17     O17     1.1352   -1.7694   -1.2779 O.3      1 ZINC000003831405   -0.5400
18     C18     1.7145   -3.7937   -0.1310 C.ar     1 ZINC000003831405   -0.0900
19     C19     2.0911   -5.1491   -0.1800 C.ar     1 ZINC000003831405   -0.0400
20     C20     1.7182   -5.9718   -1.2543 C.ar     1 ZINC000003831405   -0.1800
21     C21     2.1036   -7.2823   -1.2655 C.ar     1 ZINC000003831405    0.1600
22     O22     1.7435   -8.0795   -2.3055 O.3      1 ZINC000003831405   -0.3100
23     C23     2.1767   -9.4405   -2.2599 C.3      1 ZINC000003831405    0.0200
24     C24     2.8649   -7.8127   -0.2193 C.ar     1 ZINC000003831405   -0.1700
25     C25     3.2413   -7.0405    0.8347 C.ar     1 ZINC000003831405   -0.0400
26     C26     2.8628   -5.6866    0.8804 C.ar     1 ZINC000003831405    0.1000
27     N27     3.2200   -4.9058    1.9046 N.ar     1 ZINC000003831405   -0.4400
28     C28     2.8710   -3.6431    1.9534 C.ar     1 ZINC000003831405    0.1200
29     C29     2.1177   -3.0511    0.9423 C.ar     1 ZINC000003831405   -0.1500
30     H30     0.4144    1.9244   -0.6632 H        1 ZINC000003831405    0.1100
31     H31    -1.2056    1.8227   -1.5929 H        1 ZINC000003831405    0.1000
32     H32     0.3403   -0.4328   -0.2761 H        1 ZINC000003831405    0.1200
33     H33    -1.6867   -1.4043   -3.4051 H        1 ZINC000003831405    0.1200
34     H34    -0.0682   -1.4807   -2.6730 H        1 ZINC000003831405    0.1600
35     H35    -3.3200   -3.0750   -2.8777 H        1 ZINC000003831405    0.1300
36     H36    -2.9143   -4.3917   -1.7540 H        1 ZINC000003831405    0.1300
37     H37    -4.1012   -1.8429   -1.1552 H        1 ZINC000003831405    0.1000
38     H38    -3.6942   -3.1627   -0.0287 H        1 ZINC000003831405    0.1000
39     H39    -0.2056   -2.0207    0.6116 H        1 ZINC000003831405    0.1000
40     H40    -1.4189   -3.2665    1.0024 H        1 ZINC000003831405    0.1000
41     H41     1.3997   -1.3895   -0.4289 H        1 ZINC000003831405    0.3900
42     H42     1.1301   -5.5714   -2.0668 H        1 ZINC000003831405    0.1300
43     H43     3.2657   -9.4743   -2.2284 H        1 ZINC000003831405    0.0600
44     H44     1.7723   -9.9208   -1.3689 H        1 ZINC000003831405    0.0600
45     H45     1.8225   -9.9645   -3.1476 H        1 ZINC000003831405    0.1100
46     H46     3.1582   -8.8517   -0.2487 H        1 ZINC000003831405    0.1500
47     H47     3.8289   -7.4657    1.6349 H        1 ZINC000003831405    0.1500
48     H48     3.1789   -3.0449    2.7983 H        1 ZINC000003831405    0.1700
49     H49     1.8458   -2.0081    1.0108 H        1 ZINC000003831405    0.1400
@<TRIPOS>BOND
1     1     2     2
2     1     30    1
3     1     31    1
4     2     3     1
5     2     32    1
6     3     4     1
7     3     10    1
8     3     5     1
9     5     6     1
10    5     33    1
11    5     34    1
12    6     7     1
13    6     13    1
14    6     8     1
15    8     9     1
16    8     35    1
17    8     36    1
18    9     10    1
19    9     37    1
20    9     38    1
21    10    11    1
22    10    12    1
23    12    13    1
24    12    39    1
25    12    40    1
26    13    14    1
27    13    15    1
28    15    16    1
29    15    17    1
30    15    18    1
31    17    41    1
32    18    29    ar
33    18    19    ar
34    19    26    ar
35    19    20    ar
36    20    21    ar
37    20    42    1
38    21    22    1
39    21    24    ar
40    22    23    1
41    23    43    1
42    23    44    1
43    23    45    1
44    24    25    ar
45    24    46    1
46    25    26    ar
47    25    47    1
48    26    27    ar
49    27    28    ar
50    28    29    ar
51    28    48    1
52    29    49    1
@<TRIPOS>SUBSTRUCTURE
1   ZINC000003831405 1     RESIDUE    1   A     ZIN   1
