@<TRIPOS>MOLECULE
ZINC000021982937
64    64    1     0     0
SMALL
USER_CHARGES
@<TRIPOS>ATOM
1      O1     -0.7392    2.8166   -2.6516 O.co2    1 ZINC000021982937   -0.6900
2      C2      0.4159    2.8192   -2.2614 C.2      1 ZINC000021982937    0.4700
3      O3      1.3014    3.2497   -2.9806 O.co2    1 ZINC000021982937   -0.7000
4      C4      0.7485    2.2959   -0.8879 C.3      1 ZINC000021982937   -0.0200
5      N5     -0.4917    1.9368   -0.1872 N.3      1 ZINC000021982937   -0.4900
6      C6     -1.3609    3.1093   -0.0211 C.3      1 ZINC000021982937    0.0300
7      C7     -0.6895    4.1129    0.9186 C.3      1 ZINC000021982937   -0.0300
8      N8     -1.5587    5.2854    1.0848 N.4      1 ZINC000021982937   -0.3300
9      H9     -1.8094    5.6494    0.1778 H        1 ZINC000021982937    0.4000
10     C10    -2.7755    4.8942    1.8089 C.3      1 ZINC000021982937   -0.0800
11     C11    -2.3969    4.2755    3.1298 C.2      1 ZINC000021982937    0.5000
12     O12    -1.2287    4.2477    3.4775 O.co2    1 ZINC000021982937   -0.6700
13     O13    -3.2590    3.8027    3.8509 O.co2    1 ZINC000021982937   -0.6600
14     C14    -0.8460    6.3191    1.8474 C.3      1 ZINC000021982937   -0.0900
15     C15    -1.6719    7.5792    1.8787 C.2      1 ZINC000021982937    0.5000
16     O16    -2.7015    7.6496    1.2295 O.co2    1 ZINC000021982937   -0.6900
17     O17    -1.3104    8.5284    2.5533 O.co2    1 ZINC000021982937   -0.6700
18     C18    -1.1965    0.8538   -0.8861 C.3      1 ZINC000021982937    0.0300
19     C19    -0.5403   -0.4854   -0.5445 C.3      1 ZINC000021982937   -0.0100
20     N20    -1.1931   -1.5589   -1.3058 N.4      1 ZINC000021982937   -0.3300
21     H21    -2.1900   -1.5199   -1.1550 H        1 ZINC000021982937    0.4200
22     C22    -0.9073   -1.3881   -2.7365 C.3      1 ZINC000021982937   -0.0900
23     C23    -1.6947   -2.3986   -3.5302 C.2      1 ZINC000021982937    0.4900
24     O24    -2.5126   -3.1094   -2.9714 O.co2    1 ZINC000021982937   -0.6700
25     O25    -1.5139   -2.5053   -4.7312 O.co2    1 ZINC000021982937   -0.6700
26     C26    -0.6804   -2.8599   -0.8559 C.3      1 ZINC000021982937   -0.0400
27     H27    -1.0436   -3.6433   -1.5211 H        1 ZINC000021982937    0.1500
28     C28     0.8493   -2.8406   -0.8782 C.3      1 ZINC000021982937    0.0600
29     O29     1.3288   -1.9333    0.1163 O.3      1 ZINC000021982937   -0.3600
30     C30     2.7533   -1.8398    0.1795 C.3      1 ZINC000021982937    0.1000
31     C31     3.1452   -0.8608    1.2561 C.ar     1 ZINC000021982937   -0.0900
32     C32     3.2966    0.4788    0.9504 C.ar     1 ZINC000021982937   -0.0900
33     C33     3.6561    1.3767    1.9379 C.ar     1 ZINC000021982937   -0.1200
34     C34     3.8638    0.9352    3.2313 C.ar     1 ZINC000021982937   -0.1100
35     C35     3.7116   -0.4043    3.5372 C.ar     1 ZINC000021982937   -0.1300
36     C36     3.3479   -1.3016    2.5505 C.ar     1 ZINC000021982937   -0.1000
37     C37    -1.1590   -3.1305    0.5472 C.2      1 ZINC000021982937    0.5100
38     O38    -1.1227   -4.2636    0.9958 O.co2    1 ZINC000021982937   -0.6700
39     O39    -1.5824   -2.2163    1.2339 O.co2    1 ZINC000021982937   -0.6600
40     H40     1.3828    1.4141   -0.9787 H        1 ZINC000021982937    0.0700
41     H41     1.2749    3.0656   -0.3234 H        1 ZINC000021982937    0.0700
42     H42    -1.5299    3.5768   -0.9911 H        1 ZINC000021982937    0.0800
43     H43    -2.3153    2.7970    0.4029 H        1 ZINC000021982937    0.0800
44     H44    -0.5205    3.6454    1.8887 H        1 ZINC000021982937    0.1700
45     H45     0.2649    4.4252    0.4947 H        1 ZINC000021982937    0.1000
46     H46    -3.3931    5.7752    1.9840 H        1 ZINC000021982937    0.1400
47     H47    -3.3345    4.1706    1.2156 H        1 ZINC000021982937    0.1100
48     H48    -0.6789    5.9688    2.8659 H        1 ZINC000021982937    0.1600
49     H49     0.1130    6.5249    1.3720 H        1 ZINC000021982937    0.1000
50     H50    -2.2402    0.8376   -0.5721 H        1 ZINC000021982937    0.0700
51     H51    -1.1433    1.0206   -1.9619 H        1 ZINC000021982937    0.0900
52     H52     0.5178   -0.4481   -0.8034 H        1 ZINC000021982937    0.1100
53     H53    -0.6466   -0.6804    0.5227 H        1 ZINC000021982937    0.1600
54     H54    -1.1908   -0.3822   -3.0461 H        1 ZINC000021982937    0.1300
55     H55     0.1578   -1.5364   -2.9145 H        1 ZINC000021982937    0.1100
56     H56     1.2284   -3.8411   -0.6701 H        1 ZINC000021982937    0.0800
57     H57     1.1944   -2.5183   -1.8606 H        1 ZINC000021982937    0.0600
58     H58     3.1719   -2.8196    0.4094 H        1 ZINC000021982937    0.0500
59     H59     3.1378   -1.4967   -0.7810 H        1 ZINC000021982937    0.0500
60     H60     3.1343    0.8237   -0.0601 H        1 ZINC000021982937    0.1200
61     H61     3.7751    2.4232    1.6989 H        1 ZINC000021982937    0.1200
62     H62     4.1454    1.6366    4.0027 H        1 ZINC000021982937    0.1200
63     H63     3.8742   -0.7493    4.5476 H        1 ZINC000021982937    0.1200
64     H64     3.2289   -2.3480    2.7895 H        1 ZINC000021982937    0.1200
@<TRIPOS>BOND
1     1     2     ar
2     2     3     ar
3     2     4     1
4     4     5     1
5     4     40    1
6     4     41    1
7     5     6     1
8     5     18    1
9     6     7     1
10    6     42    1
11    6     43    1
12    7     8     1
13    7     44    1
14    7     45    1
15    8     9     1
16    8     10    1
17    8     14    1
18    10    11    1
19    10    46    1
20    10    47    1
21    11    12    ar
22    11    13    ar
23    14    15    1
24    14    48    1
25    14    49    1
26    15    16    ar
27    15    17    ar
28    18    19    1
29    18    50    1
30    18    51    1
31    19    20    1
32    19    52    1
33    19    53    1
34    20    21    1
35    20    22    1
36    20    26    1
37    22    23    1
38    22    54    1
39    22    55    1
40    23    24    ar
41    23    25    ar
42    26    27    1
43    26    28    1
44    26    37    1
45    28    29    1
46    28    56    1
47    28    57    1
48    29    30    1
49    30    31    1
50    30    58    1
51    30    59    1
52    31    36    ar
53    31    32    ar
54    32    33    ar
55    32    60    1
56    33    34    ar
57    33    61    1
58    34    35    ar
59    34    62    1
60    35    36    ar
61    35    63    1
62    36    64    1
63    37    38    ar
64    37    39    ar
@<TRIPOS>SUBSTRUCTURE
1   ZINC000021982937 1     RESIDUE    1   A     ZIN   1
