@<TRIPOS>MOLECULE
ZINC000034051848
43    45    1     0     0
SMALL
USER_CHARGES
@<TRIPOS>ATOM
1      C1      1.1051    1.4129   -0.0680 C.3      1 ZINC000034051848   -0.1200
2      C2      0.8454   -0.0715   -0.0565 C.ar     1 ZINC000034051848   -0.0500
3      C3     -0.4064   -0.5501    0.2844 C.ar     1 ZINC000034051848   -0.1400
4      C4     -0.6481   -1.9097    0.2960 C.ar     1 ZINC000034051848   -0.0600
5      C5      0.3684   -2.7972   -0.0358 C.ar     1 ZINC000034051848   -0.1700
6      S6      0.0645   -4.5328   -0.0229 S.3      1 ZINC000034051848    0.0400
7      C7     -0.0880   -4.9212   -1.7348 C.ar     1 ZINC000034051848   -0.0800
8      C8     -0.0793   -3.9076   -2.6815 C.ar     1 ZINC000034051848   -0.1200
9      C9     -0.1992   -4.2149   -4.0243 C.ar     1 ZINC000034051848   -0.1000
10     C10    -0.3284   -5.5308   -4.4277 C.ar     1 ZINC000034051848   -0.1200
11     C11    -0.3381   -6.5481   -3.4905 C.ar     1 ZINC000034051848   -0.1300
12     C12    -0.2122   -6.2501   -2.1426 C.ar     1 ZINC000034051848    0.1000
13     N13    -0.2213   -7.2780   -1.1927 N.3      1 ZINC000034051848   -0.5000
14     C14    -1.5142   -7.9765   -1.1848 C.3      1 ZINC000034051848    0.0600
15     C15    -1.5112   -9.0373   -0.0816 C.3      1 ZINC000034051848    0.0600
16     N16    -0.4081   -9.9798   -0.3150 N.3      1 ZINC000034051848   -0.6900
17     C17     0.8849   -9.2813   -0.3228 C.3      1 ZINC000034051848    0.0600
18     C18     0.8818   -8.2205   -1.4260 C.3      1 ZINC000034051848    0.0600
19     C19     1.6253   -2.3125   -0.3783 C.ar     1 ZINC000034051848   -0.0300
20     C20     2.7309   -3.2709   -0.7390 C.3      1 ZINC000034051848   -0.1300
21     C21     1.8582   -0.9518   -0.3924 C.ar     1 ZINC000034051848   -0.1300
22     H22     0.8783    1.8138   -1.0559 H        1 ZINC000034051848    0.0800
23     H23     0.4724    1.8982    0.6751 H        1 ZINC000034051848    0.0700
24     H24     2.1525    1.6003    0.1685 H        1 ZINC000034051848    0.0700
25     H25    -1.1960    0.1403    0.5422 H        1 ZINC000034051848    0.1300
26     H26    -1.6258   -2.2828    0.5630 H        1 ZINC000034051848    0.1300
27     H27     0.0207   -2.8784   -2.3699 H        1 ZINC000034051848    0.1200
28     H28    -0.1923   -3.4245   -4.7602 H        1 ZINC000034051848    0.1200
29     H29    -0.4225   -5.7653   -5.4777 H        1 ZINC000034051848    0.1200
30     H30    -0.4396   -7.5750   -3.8093 H        1 ZINC000034051848    0.1200
31     H31    -2.3137   -7.2596   -0.9978 H        1 ZINC000034051848    0.0800
32     H32    -1.6741   -8.4563   -2.1504 H        1 ZINC000034051848    0.0500
33     H33    -1.3784   -8.5547    0.8866 H        1 ZINC000034051848    0.0400
34     H34    -2.4585   -9.5763   -0.0929 H        1 ZINC000034051848    0.0800
35     H35    -0.4146  -10.7208    0.3698 H        1 ZINC000034051848    0.3500
36     H36     1.0448   -8.8015    0.6427 H        1 ZINC000034051848    0.0400
37     H37     1.6844   -9.9982   -0.5099 H        1 ZINC000034051848    0.0800
38     H38     0.7491   -8.7031   -2.3943 H        1 ZINC000034051848    0.0500
39     H39     1.8292   -7.6815   -1.4148 H        1 ZINC000034051848    0.0800
40     H40     2.7123   -3.4597   -1.8124 H        1 ZINC000034051848    0.0700
41     H41     3.6921   -2.8373   -0.4629 H        1 ZINC000034051848    0.0700
42     H42     2.5880   -4.2089   -0.2026 H        1 ZINC000034051848    0.0800
43     H43     2.8345   -0.5744   -0.6585 H        1 ZINC000034051848    0.1300
@<TRIPOS>BOND
1     1     2     1
2     1     22    1
3     1     23    1
4     1     24    1
5     2     21    ar
6     2     3     ar
7     3     4     ar
8     3     25    1
9     4     5     ar
10    4     26    1
11    5     6     1
12    5     19    ar
13    6     7     1
14    7     12    ar
15    7     8     ar
16    8     9     ar
17    8     27    1
18    9     10    ar
19    9     28    1
20    10    11    ar
21    10    29    1
22    11    12    ar
23    11    30    1
24    12    13    1
25    13    18    1
26    13    14    1
27    14    15    1
28    14    31    1
29    14    32    1
30    15    16    1
31    15    33    1
32    15    34    1
33    16    17    1
34    16    35    1
35    17    18    1
36    17    36    1
37    17    37    1
38    18    38    1
39    18    39    1
40    19    20    1
41    19    21    ar
42    20    40    1
43    20    41    1
44    20    42    1
45    21    43    1
@<TRIPOS>SUBSTRUCTURE
1   ZINC000034051848 1     RESIDUE    1   A     ZIN   1
