@<TRIPOS>MOLECULE
ZINC000003813083
51   53    0    0    0
SMALL
USER_CHARGES
NO_NAME
@<TRIPOS>ATOM
1 C1        2.4712     1.8128     0.2656 C.3    1 <0>      -0.0400
2 N2        2.1776     0.3802     0.1269 N.4    1 <0>      -0.2600
3 C3        0.7754     0.2058    -0.2748 C.3    1 <0>      -0.0600
4 C4        3.0530    -0.2001    -0.8985 C.3    1 <0>      -0.0100
5 C5        2.6963    -1.6738    -1.1046 C.3    1 <0>      -0.1400
6 C6        2.8835    -2.4280     0.2150 C.3    1 <0>      -0.1600
7 C7        2.0221    -1.7680     1.2955 C.3    1 <0>       0.0600
8 H8        0.9699    -1.8516     1.0235 H      1 <0>       0.1100
9 O9        2.2482    -2.4305     2.5676 O.3    1 <0>      -0.3300
10 C10       1.4555    -3.4732     2.8611 C.2    1 <0>       0.4500
11 O11       0.6011    -3.8209     2.0808 O.2    1 <0>      -0.4700
12 C12       1.6313    -4.2103     4.1637 C.3    1 <0>       0.2500
13 O13       3.0176    -4.2431     4.5091 O.3    1 <0>      -0.5200
14 C14       0.8599    -3.5039     5.2486 C.ar   1 <0>      -0.0900
15 C15      -0.3932    -2.9856     4.9803 C.ar   1 <0>      -0.1200
16 C16      -1.1008    -2.3377     5.9754 C.ar   1 <0>      -0.1200
17 C17      -0.5554    -2.2084     7.2391 C.ar   1 <0>      -0.1000
18 C18       0.6973    -2.7274     7.5077 C.ar   1 <0>      -0.1200
19 C19       1.4031    -3.3791     6.5137 C.ar   1 <0>      -0.0800
20 C20       1.1166    -5.6190     4.0172 C.ar   1 <0>      -0.1300
21 C21       1.9901    -6.6868     4.1058 C.ar   1 <0>      -0.1000
22 C22       1.5180    -7.9790     3.9714 C.ar   1 <0>      -0.1200
23 C23       0.1723    -8.2036     3.7490 C.ar   1 <0>      -0.1000
24 C24      -0.7014    -7.1359     3.6613 C.ar   1 <0>      -0.1200
25 C25      -0.2299    -5.8438     3.8000 C.ar   1 <0>      -0.0800
26 C26       2.4038    -0.2908     1.4127 C.3    1 <0>       0.0000
27 H27       3.5107     1.9433     0.5662 H      1 <0>       0.1200
28 H28       2.3035     2.3121    -0.6887 H      1 <0>       0.1300
29 H29       1.8170     2.2462     1.0222 H      1 <0>       0.1200
30 H30       0.6057     0.7060    -1.2283 H      1 <0>       0.1300
31 H31       0.5565    -0.8570    -0.3780 H      1 <0>       0.1200
32 H32       0.1236     0.6390     0.4838 H      1 <0>       0.1300
33 H33       2.9210     0.3398    -1.8362 H      1 <0>       0.1400
34 H34       4.0914    -0.1196    -0.5770 H      1 <0>       0.1300
35 H35       1.6581    -1.7555    -1.4264 H      1 <0>       0.0900
36 H36       3.3486    -2.1033    -1.8650 H      1 <0>       0.1200
37 H37       2.5769    -3.4663     0.0881 H      1 <0>       0.1000
38 H38       3.9319    -2.3900     0.5110 H      1 <0>       0.1000
39 H39       3.5758    -4.6842     3.8541 H      1 <0>       0.3900
40 H40      -0.8192    -3.0867     3.9930 H      1 <0>       0.1200
41 H41      -2.0795    -1.9322     5.7656 H      1 <0>       0.1300
42 H42      -1.1079    -1.7015     8.0164 H      1 <0>       0.1300
43 H43       1.1235    -2.6261     8.4948 H      1 <0>       0.1300
44 H44       2.3818    -3.7847     6.7235 H      1 <0>       0.1400
45 H45       3.0415    -6.5113     4.2796 H      1 <0>       0.1300
46 H46       2.2006    -8.8132     4.0399 H      1 <0>       0.1300
47 H47      -0.1965    -9.2131     3.6433 H      1 <0>       0.1300
48 H48      -1.7527    -7.3113     3.4872 H      1 <0>       0.1300
49 H49      -0.9125    -5.0097     3.7315 H      1 <0>       0.1200
50 H50       3.4560    -0.2084     1.6849 H      1 <0>       0.1400
51 H51       1.7924     0.1821     2.1812 H      1 <0>       0.1400
@<TRIPOS>BOND
1    1    2 1
2    1   27 1
3    1   28 1
4    1   29 1
5    2   26 1
6    2    3 1
7    2    4 1
8    3   30 1
9    3   31 1
10    3   32 1
11    4    5 1
12    4   33 1
13    4   34 1
14    5    6 1
15    5   35 1
16    5   36 1
17    6    7 1
18    6   37 1
19    6   38 1
20    7    8 1
21    7    9 1
22    7   26 1
23    9   10 1
24   10   11 2
25   10   12 1
26   12   13 1
27   12   14 1
28   12   20 1
29   13   39 1
30   14   19 ar
31   14   15 ar
32   15   16 ar
33   15   40 1
34   16   17 ar
35   16   41 1
36   17   18 ar
37   17   42 1
38   18   19 ar
39   18   43 1
40   19   44 1
41   20   25 ar
42   20   21 ar
43   21   22 ar
44   21   45 1
45   22   23 ar
46   22   46 1
47   23   24 ar
48   23   47 1
49   24   25 ar
50   24   48 1
51   25   49 1
52   26   50 1
53   26   51 1
