@<TRIPOS>MOLECULE
ZINC000022448983
65    68    1     0     0
SMALL
USER_CHARGES
@<TRIPOS>ATOM
1      C1     -2.0850   -2.9446   -2.6142 C.3      1 ZINC000022448983    0.0200
2      O2     -1.3809   -2.8544   -1.3740 O.3      1 ZINC000022448983   -0.3000
3      C3     -1.8444   -1.9561   -0.4651 C.ar     1 ZINC000022448983    0.1700
4      C4     -3.0177   -1.2620   -0.7129 C.ar     1 ZINC000022448983   -0.1900
5      C5     -3.4891   -0.3455    0.2173 C.ar     1 ZINC000022448983    0.1800
6      N6     -4.6731    0.3563   -0.0295 N.pl3    1 ZINC000022448983   -0.6700
7      C7     -4.6364    1.7206   -0.2374 C.ar     1 ZINC000022448983    0.3200
8      C8     -5.7786    2.5239   -0.0165 C.ar     1 ZINC000022448983   -0.1300
9      C9     -6.9859    1.9593    0.4218 C.ar     1 ZINC000022448983   -0.1600
10     C10    -8.0736    2.7578    0.6277 C.ar     1 ZINC000022448983    0.1200
11     O11    -9.2424    2.2077    1.0524 O.3      1 ZINC000022448983   -0.3000
12     C12    -9.2561    0.7941    1.2608 C.3      1 ZINC000022448983    0.0200
13     C13    -7.9966    4.1401    0.4056 C.ar     1 ZINC000022448983    0.1600
14     O14    -9.0911    4.9165    0.6172 O.3      1 ZINC000022448983   -0.2900
15     C15    -8.9497    6.3175    0.3734 C.3      1 ZINC000022448983    0.0600
16     C16   -10.2763    7.0222    0.6638 C.3      1 ZINC000022448983   -0.1200
17     C17   -10.1249    8.5221    0.4028 C.3      1 ZINC000022448983    0.0600
18     N18   -11.3986    9.1987    0.6817 N.3      1 ZINC000022448983   -0.5400
19     C19   -12.5241    8.4729    0.0766 C.3      1 ZINC000022448983    0.0500
20     C20   -13.8361    9.1636    0.4558 C.3      1 ZINC000022448983    0.0600
21     N21   -13.8036   10.5585   -0.0057 N.3      1 ZINC000022448983   -0.5500
22     C22   -15.0773   11.2351    0.2732 C.3      1 ZINC000022448983    0.0200
23     C23   -12.6782   11.2843    0.5995 C.3      1 ZINC000022448983    0.0600
24     C24   -11.3661   10.5936    0.2202 C.3      1 ZINC000022448983    0.0600
25     C25    -6.8243    4.7189   -0.0238 C.ar     1 ZINC000022448983   -0.1800
26     C26    -5.6922    3.9188   -0.2435 C.ar     1 ZINC000022448983    0.1900
27     N27    -4.5411    4.4650   -0.6614 N.ar     1 ZINC000022448983   -0.5000
28     C28    -3.4689    3.7453   -0.8746 C.ar     1 ZINC000022448983    0.2100
29     C29    -3.4622    2.3566   -0.6694 C.ar     1 ZINC000022448983   -0.1700
30     C30    -2.2737    1.5952   -0.9107 C.1      1 ZINC000022448983    0.2500
31     N31    -1.3308    0.9912   -1.1021 N.1      1 ZINC000022448983   -0.4100
32     C32    -2.7830   -0.1267    1.3944 C.ar     1 ZINC000022448983   -0.0700
33     Cl33   -3.3712    1.0185    2.5590 Cl       1 ZINC000022448983   -0.0400
34     C34    -1.6127   -0.8211    1.6382 C.ar     1 ZINC000022448983   -0.0500
35     C35    -1.1451   -1.7380    0.7148 C.ar     1 ZINC000022448983   -0.0500
36     Cl36    0.3249   -2.6078    1.0248 Cl       1 ZINC000022448983   -0.0300
37     H37    -1.5725   -3.6458   -3.2729 H        1 ZINC000022448983    0.1100
38     H38    -3.1008   -3.2948   -2.4306 H        1 ZINC000022448983    0.0600
39     H39    -2.1189   -1.9622   -3.0851 H        1 ZINC000022448983    0.0600
40     H40    -3.5644   -1.4335   -1.6283 H        1 ZINC000022448983    0.1500
41     H41    -5.5203   -0.1155   -0.0547 H        1 ZINC000022448983    0.4200
42     H42    -7.0546    0.8956    0.5954 H        1 ZINC000022448983    0.1400
43     H43   -10.2460    0.4861    1.5977 H        1 ZINC000022448983    0.1100
44     H44    -9.0162    0.2867    0.3264 H        1 ZINC000022448983    0.0600
45     H45    -8.5167    0.5311    2.0173 H        1 ZINC000022448983    0.0600
46     H46    -8.1734    6.7226    1.0224 H        1 ZINC000022448983    0.0700
47     H47    -8.6731    6.4789   -0.6685 H        1 ZINC000022448983    0.0700
48     H48   -11.0527    6.6170    0.0148 H        1 ZINC000022448983    0.0800
49     H49   -10.5530    6.8608    1.7057 H        1 ZINC000022448983    0.0900
50     H50    -9.3485    8.9273    1.0519 H        1 ZINC000022448983    0.0800
51     H51    -9.8483    8.6835   -0.6390 H        1 ZINC000022448983    0.0400
52     H52   -12.4144    8.4708   -1.0079 H        1 ZINC000022448983    0.0400
53     H53   -12.5342    7.4465    0.4433 H        1 ZINC000022448983    0.0900
54     H54   -14.6702    8.6439   -0.0157 H        1 ZINC000022448983    0.0800
55     H55   -13.9589    9.1416    1.5387 H        1 ZINC000022448983    0.0400
56     H56   -15.2659   11.2264    1.3467 H        1 ZINC000022448983    0.0300
57     H57   -15.0260   12.2655   -0.0784 H        1 ZINC000022448983    0.0700
58     H58   -15.8852   10.7153   -0.2418 H        1 ZINC000022448983    0.0700
59     H59   -12.6681   12.3107    0.2327 H        1 ZINC000022448983    0.0800
60     H60   -12.7878   11.2864    1.6840 H        1 ZINC000022448983    0.0400
61     H61   -10.5320   11.1133    0.6918 H        1 ZINC000022448983    0.0800
62     H62   -11.2433   10.6156   -0.8626 H        1 ZINC000022448983    0.0400
63     H63    -6.7758    5.7846   -0.1918 H        1 ZINC000022448983    0.1600
64     H64    -2.5657    4.2325   -1.2109 H        1 ZINC000022448983    0.1700
65     H65    -1.0650   -0.6501    2.5532 H        1 ZINC000022448983    0.1600
@<TRIPOS>BOND
1     1     2     1
2     1     37    1
3     1     38    1
4     1     39    1
5     2     3     1
6     3     35    ar
7     3     4     ar
8     4     5     ar
9     4     40    1
10    5     6     1
11    5     32    ar
12    6     7     1
13    6     41    1
14    7     29    ar
15    7     8     ar
16    8     26    ar
17    8     9     ar
18    9     10    ar
19    9     42    1
20    10    11    1
21    10    13    ar
22    11    12    1
23    12    43    1
24    12    44    1
25    12    45    1
26    13    14    1
27    13    25    ar
28    14    15    1
29    15    16    1
30    15    46    1
31    15    47    1
32    16    17    1
33    16    48    1
34    16    49    1
35    17    18    1
36    17    50    1
37    17    51    1
38    18    24    1
39    18    19    1
40    19    20    1
41    19    52    1
42    19    53    1
43    20    21    1
44    20    54    1
45    20    55    1
46    21    22    1
47    21    23    1
48    22    56    1
49    22    57    1
50    22    58    1
51    23    24    1
52    23    59    1
53    23    60    1
54    24    61    1
55    24    62    1
56    25    26    ar
57    25    63    1
58    26    27    ar
59    27    28    ar
60    28    29    ar
61    28    64    1
62    29    30    1
63    30    31    3
64    32    33    1
65    32    34    ar
66    34    35    ar
67    34    65    1
68    35    36    1
@<TRIPOS>SUBSTRUCTURE
1   ZINC000022448983 1     RESIDUE    1   A     ZIN   1
