@<TRIPOS>MOLECULE
ZINC000002016257
47    47    1     0     0
SMALL
USER_CHARGES
@<TRIPOS>ATOM
1      C1      0.7911    1.9191   -0.4666 C.3      1 ZINC000002016257   -0.1500
2      C2      0.2998    0.4715   -0.4023 C.3      1 ZINC000002016257   -0.1300
3      C3      0.9572   -0.3403   -1.5203 C.3      1 ZINC000002016257   -0.1200
4      C4      0.4659   -1.7878   -1.4560 C.3      1 ZINC000002016257   -0.1100
5      C5      1.1233   -2.5996   -2.5739 C.3      1 ZINC000002016257   -0.0900
6      H6      0.9326   -2.1181   -3.5330 H        1 ZINC000002016257    0.0800
7      C7      2.6322   -2.6731   -2.3313 C.3      1 ZINC000002016257   -0.1200
8      C8      3.3055   -3.3716   -3.5143 C.3      1 ZINC000002016257   -0.1600
9      C9      0.5396   -4.0138   -2.5882 C.3      1 ZINC000002016257    0.0700
10     O10     1.0692   -4.7445   -3.7257 O.3      1 ZINC000002016257   -0.3500
11     C11     0.6516   -6.0160   -3.8843 C.2      1 ZINC000002016257    0.5100
12     O12    -0.1336   -6.5007   -3.0937 O.2      1 ZINC000002016257   -0.5200
13     C13     1.1473   -6.8185   -5.0167 C.ar     1 ZINC000002016257   -0.2000
14     C14     2.0555   -6.2641   -5.9243 C.ar     1 ZINC000002016257   -0.0100
15     C15     2.5147   -7.0134   -6.9767 C.ar     1 ZINC000002016257   -0.2200
16     C16     2.0774   -8.3249   -7.1426 C.ar     1 ZINC000002016257    0.2500
17     N17     2.5446   -9.0818   -8.2110 N.pl3    1 ZINC000002016257   -0.6300
18     C18     3.3960   -8.4631   -9.2301 C.3      1 ZINC000002016257    0.0900
19     C19     2.1855  -10.4981   -8.3178 C.3      1 ZINC000002016257    0.0800
20     C20     1.1737   -8.8802   -6.2406 C.ar     1 ZINC000002016257   -0.2200
21     C21     0.7150   -8.1382   -5.1828 C.ar     1 ZINC000002016257    0.0000
22     H22     1.8739    1.9411   -0.3432 H        1 ZINC000002016257    0.0500
23     H23     0.5267    2.3500   -1.4323 H        1 ZINC000002016257    0.0500
24     H24     0.3228    2.4974    0.3298 H        1 ZINC000002016257    0.0500
25     H25     0.5643    0.0406    0.5633 H        1 ZINC000002016257    0.0600
26     H26    -0.7829    0.4495   -0.5258 H        1 ZINC000002016257    0.0600
27     H27     0.6928    0.0906   -2.4859 H        1 ZINC000002016257    0.0600
28     H28     2.0400   -0.3182   -1.3968 H        1 ZINC000002016257    0.0700
29     H29     0.7304   -2.2187   -0.4903 H        1 ZINC000002016257    0.0700
30     H30    -0.6168   -1.8098   -1.5794 H        1 ZINC000002016257    0.0700
31     H31     3.0332   -1.6648   -2.2285 H        1 ZINC000002016257    0.0700
32     H32     2.8264   -3.2361   -1.4184 H        1 ZINC000002016257    0.0600
33     H33     4.3882   -3.3168   -3.4004 H        1 ZINC000002016257    0.0500
34     H34     2.9957   -4.4163   -3.5437 H        1 ZINC000002016257    0.0700
35     H35     3.0124   -2.8795   -4.4417 H        1 ZINC000002016257    0.0500
36     H36     0.8119   -4.5286   -1.6669 H        1 ZINC000002016257    0.0700
37     H37    -0.5462   -3.9579   -2.6659 H        1 ZINC000002016257    0.0700
38     H38     2.3945   -5.2466   -5.7966 H        1 ZINC000002016257    0.1400
39     H39     3.2160   -6.5859   -7.6779 H        1 ZINC000002016257    0.1300
40     H40     4.4417   -8.5622   -8.9390 H        1 ZINC000002016257    0.0500
41     H41     3.2366   -8.9599  -10.1871 H        1 ZINC000002016257    0.0700
42     H42     3.1431   -7.4069   -9.3224 H        1 ZINC000002016257    0.0700
43     H43     1.4806  -10.7548   -7.5271 H        1 ZINC000002016257    0.0800
44     H44     1.7262  -10.6842   -9.2886 H        1 ZINC000002016257    0.0600
45     H45     3.0826  -11.1089   -8.2172 H        1 ZINC000002016257    0.0600
46     H46     0.8368   -9.8979   -6.3720 H        1 ZINC000002016257    0.1300
47     H47     0.0140   -8.5695   -4.4835 H        1 ZINC000002016257    0.1400
@<TRIPOS>BOND
1     1     2     1
2     1     22    1
3     1     23    1
4     1     24    1
5     2     3     1
6     2     25    1
7     2     26    1
8     3     4     1
9     3     27    1
10    3     28    1
11    4     5     1
12    4     29    1
13    4     30    1
14    5     6     1
15    5     7     1
16    5     9     1
17    7     8     1
18    7     31    1
19    7     32    1
20    8     33    1
21    8     34    1
22    8     35    1
23    9     10    1
24    9     36    1
25    9     37    1
26    10    11    1
27    11    12    2
28    11    13    1
29    13    21    ar
30    13    14    ar
31    14    15    ar
32    14    38    1
33    15    16    ar
34    15    39    1
35    16    17    1
36    16    20    ar
37    17    18    1
38    17    19    1
39    18    40    1
40    18    41    1
41    18    42    1
42    19    43    1
43    19    44    1
44    19    45    1
45    20    21    ar
46    20    46    1
47    21    47    1
@<TRIPOS>SUBSTRUCTURE
1   ZINC000002016257 1     RESIDUE    1   A     ZIN   1
