@<TRIPOS>MOLECULE
ZINC000003831404
49    52    1     0     0
SMALL
USER_CHARGES
@<TRIPOS>ATOM
1      C1      0.0204    1.3035    0.0115 C.2      1 ZINC000003831404   -0.1400
2      C2      0.0288   -0.0065    0.0009 C.2      1 ZINC000003831404   -0.1900
3      C3     -1.2705   -0.7687    0.0448 C.3      1 ZINC000003831404   -0.0700
4      H4     -2.1042   -0.0675    0.0822 H        1 ZINC000003831404    0.1100
5      C5     -1.3932   -1.6452   -1.2037 C.3      1 ZINC000003831404    0.0000
6      N6     -1.4953   -3.0548   -0.8187 N.4      1 ZINC000003831404   -0.3700
7      H7     -1.5704   -3.6102   -1.6577 H        1 ZINC000003831404    0.4200
8      C8     -2.6915   -3.2816   -0.0042 C.3      1 ZINC000003831404   -0.0300
9      C9     -2.6119   -2.4593    1.2840 C.3      1 ZINC000003831404   -0.1400
10     C10    -1.2979   -1.6670    1.2883 C.3      1 ZINC000003831404   -0.0900
11     H11    -1.2145   -1.0789    2.2023 H        1 ZINC000003831404    0.1200
12     C12    -0.1335   -2.6611    1.1877 C.3      1 ZINC000003831404   -0.1300
13     C13    -0.2981   -3.4779   -0.0884 C.3      1 ZINC000003831404    0.0000
14     H14     0.5715   -3.3283   -0.7283 H        1 ZINC000003831404    0.1400
15     C15    -0.4157   -4.9608    0.2696 C.3      1 ZINC000003831404    0.1400
16     H16    -0.6799   -5.5299   -0.6216 H        1 ZINC000003831404    0.1400
17     O17    -1.4295   -5.1322    1.2621 O.3      1 ZINC000003831404   -0.5400
18     C18     0.9027   -5.4537    0.8079 C.ar     1 ZINC000003831404   -0.0900
19     C19     1.9229   -5.8850   -0.0608 C.ar     1 ZINC000003831404   -0.0400
20     C20     1.7497   -5.8715   -1.4536 C.ar     1 ZINC000003831404   -0.1800
21     C21     2.7638   -6.2978   -2.2634 C.ar     1 ZINC000003831404    0.1600
22     O22     2.5972   -6.2847   -3.6120 O.3      1 ZINC000003831404   -0.3100
23     C23     3.6938   -6.7425   -4.4056 C.3      1 ZINC000003831404    0.0200
24     C24     3.9716   -6.7471   -1.7204 C.ar     1 ZINC000003831404   -0.1800
25     C25     4.1690   -6.7718   -0.3753 C.ar     1 ZINC000003831404   -0.0300
26     C26     3.1471   -6.3403    0.4896 C.ar     1 ZINC000003831404    0.1000
27     N27     3.3156   -6.3540    1.8154 N.ar     1 ZINC000003831404   -0.4400
28     C28     2.3676   -5.9529    2.6273 C.ar     1 ZINC000003831404    0.1200
29     C29     1.1431   -5.4890    2.1522 C.ar     1 ZINC000003831404   -0.1300
30     H30     0.9516    1.8497   -0.0199 H        1 ZINC000003831404    0.1100
31     H31    -0.9178    1.8372    0.0471 H        1 ZINC000003831404    0.1000
32     H32     0.9669   -0.5401   -0.0392 H        1 ZINC000003831404    0.1200
33     H33    -2.2842   -1.3572   -1.7616 H        1 ZINC000003831404    0.1300
34     H34    -0.5138   -1.5046   -1.8322 H        1 ZINC000003831404    0.1300
35     H35    -3.5752   -2.9845   -0.5689 H        1 ZINC000003831404    0.1300
36     H36    -2.7633   -4.3400    0.2461 H        1 ZINC000003831404    0.1600
37     H37    -3.4533   -1.7678    1.3285 H        1 ZINC000003831404    0.1000
38     H38    -2.6390   -3.1266    2.1455 H        1 ZINC000003831404    0.1000
39     H39     0.8105   -2.1168    1.1630 H        1 ZINC000003831404    0.1100
40     H40    -0.1491   -3.3303    2.0480 H        1 ZINC000003831404    0.0900
41     H41    -1.2598   -4.6527    2.0845 H        1 ZINC000003831404    0.3900
42     H42     0.8203   -5.5266   -1.8823 H        1 ZINC000003831404    0.1300
43     H43     4.5672   -6.1196   -4.2123 H        1 ZINC000003831404    0.0600
44     H44     3.9213   -7.7771   -4.1487 H        1 ZINC000003831404    0.0600
45     H45     3.4294   -6.6800   -5.4612 H        1 ZINC000003831404    0.1100
46     H46     4.7597   -7.0800   -2.3796 H        1 ZINC000003831404    0.1500
47     H47     5.1076   -7.1221    0.0279 H        1 ZINC000003831404    0.1500
48     H48     2.5420   -5.9795    3.6928 H        1 ZINC000003831404    0.1700
49     H49     0.3816   -5.1651    2.8461 H        1 ZINC000003831404    0.1400
@<TRIPOS>BOND
1     1     2     2
2     1     30    1
3     1     31    1
4     2     3     1
5     2     32    1
6     3     4     1
7     3     10    1
8     3     5     1
9     5     6     1
10    5     33    1
11    5     34    1
12    6     7     1
13    6     13    1
14    6     8     1
15    8     9     1
16    8     35    1
17    8     36    1
18    9     10    1
19    9     37    1
20    9     38    1
21    10    11    1
22    10    12    1
23    12    13    1
24    12    39    1
25    12    40    1
26    13    14    1
27    13    15    1
28    15    16    1
29    15    17    1
30    15    18    1
31    17    41    1
32    18    29    ar
33    18    19    ar
34    19    26    ar
35    19    20    ar
36    20    21    ar
37    20    42    1
38    21    22    1
39    21    24    ar
40    22    23    1
41    23    43    1
42    23    44    1
43    23    45    1
44    24    25    ar
45    24    46    1
46    25    26    ar
47    25    47    1
48    26    27    ar
49    27    28    ar
50    28    29    ar
51    28    48    1
52    29    49    1
@<TRIPOS>SUBSTRUCTURE
1   ZINC000003831404 1     RESIDUE    1   A     ZIN   1
