@<TRIPOS>MOLECULE
ZINC000000897408
43    44    1     0     0
SMALL
USER_CHARGES
@<TRIPOS>ATOM
1      C1     -0.0205    1.5319   -0.0030 C.3      1 ZINC000000897408   -0.1800
2      C2      0.0027    0.0021    0.0002 C.3      1 ZINC000000897408    0.1400
3      O3      0.6962   -0.4614    1.1605 O.3      1 ZINC000000897408   -0.5400
4      C4     -1.4317   -0.5298    0.0170 C.3      1 ZINC000000897408   -0.6400
5      S5     -2.3244    0.1830    1.4261 S.o2     1 ZINC000000897408    2.5200
6      O6     -1.8075   -0.3207    2.6502 O.2      1 ZINC000000897408   -0.9100
7      O7     -2.5274    1.5763    1.2347 O.2      1 ZINC000000897408   -0.9200
8      C8     -3.9407   -0.5104    1.3189 C.ar     1 ZINC000000897408   -0.6800
9      C9     -4.9212    0.1332    0.5870 C.ar     1 ZINC000000897408    0.0100
10     C10    -6.1892   -0.4097    0.5022 C.ar     1 ZINC000000897408   -0.1700
11     C11    -6.4774   -1.5988    1.1503 C.ar     1 ZINC000000897408    0.1600
12     F12    -7.7166   -2.1307    1.0677 F        1 ZINC000000897408   -0.1300
13     C13    -5.4945   -2.2427    1.8827 C.ar     1 ZINC000000897408   -0.1700
14     C14    -4.2258   -1.7004    1.9621 C.ar     1 ZINC000000897408    0.0100
15     C15     0.7073   -0.4922   -1.2369 C.2      1 ZINC000000897408    0.5000
16     O16     0.0655   -0.7925   -2.2212 O.2      1 ZINC000000897408   -0.5000
17     N17     2.0506   -0.6005   -1.2495 N.am     1 ZINC000000897408   -0.6600
18     C18     2.6961   -1.1483   -2.3588 C.ar     1 ZINC000000897408    0.1700
19     C19     2.1969   -0.9169   -3.6362 C.ar     1 ZINC000000897408   -0.0900
20     C20     2.8310   -1.4562   -4.7332 C.ar     1 ZINC000000897408   -0.0500
21     C21     3.9777   -2.2365   -4.5619 C.ar     1 ZINC000000897408    0.0100
22     C22     4.6401   -2.7986   -5.7003 C.1      1 ZINC000000897408    0.2300
23     N23     5.1655   -3.2445   -6.6033 N.1      1 ZINC000000897408   -0.3700
24     C24     4.4768   -2.4666   -3.2765 C.ar     1 ZINC000000897408   -0.1200
25     C25     5.7133   -3.3069   -3.0866 C.3      1 ZINC000000897408    0.5100
26     F26     6.0141   -3.3923   -1.7230 F        1 ZINC000000897408   -0.1700
27     F27     5.4876   -4.5903   -3.5957 F        1 ZINC000000897408   -0.1700
28     F28     6.7860   -2.7181   -3.7647 F        1 ZINC000000897408   -0.1700
29     C29     3.8406   -1.9198   -2.1848 C.ar     1 ZINC000000897408   -0.0900
30     H30     1.0014    1.9108   -0.0150 H        1 ZINC000000897408    0.0900
31     H31    -0.5495    1.8854   -0.8881 H        1 ZINC000000897408    0.1000
32     H32    -0.5301    1.8894    0.8918 H        1 ZINC000000897408    0.1000
33     H33     0.7497   -1.4245    1.2282 H        1 ZINC000000897408    0.3900
34     H34    -1.9335   -0.2509   -0.9096 H        1 ZINC000000897408    0.1600
35     H35    -1.4156   -1.6158    0.1088 H        1 ZINC000000897408    0.1500
36     H36    -4.6962    1.0607    0.0815 H        1 ZINC000000897408    0.1500
37     H37    -6.9552    0.0936   -0.0691 H        1 ZINC000000897408    0.1500
38     H38    -5.7182   -3.1701    2.3889 H        1 ZINC000000897408    0.1500
39     H39    -3.4589   -2.2026    2.5330 H        1 ZINC000000897408    0.1500
40     H40     2.5688   -0.2977   -0.4874 H        1 ZINC000000897408    0.4300
41     H41     1.3107   -0.3138   -3.7678 H        1 ZINC000000897408    0.1600
42     H42     2.4424   -1.2767   -5.7248 H        1 ZINC000000897408    0.1500
43     H43     4.2259   -2.0968   -1.1915 H        1 ZINC000000897408    0.1600
@<TRIPOS>BOND
1     1     2     1
2     1     30    1
3     1     31    1
4     1     32    1
5     2     3     1
6     2     4     1
7     2     15    1
8     3     33    1
9     4     5     1
10    4     34    1
11    4     35    1
12    5     6     2
13    5     7     2
14    5     8     1
15    8     14    ar
16    8     9     ar
17    9     10    ar
18    9     36    1
19    10    11    ar
20    10    37    1
21    11    12    1
22    11    13    ar
23    13    14    ar
24    13    38    1
25    14    39    1
26    15    16    2
27    15    17    am
28    17    18    1
29    17    40    1
30    18    29    ar
31    18    19    ar
32    19    20    ar
33    19    41    1
34    20    21    ar
35    20    42    1
36    21    22    1
37    21    24    ar
38    22    23    3
39    24    25    1
40    24    29    ar
41    25    26    1
42    25    27    1
43    25    28    1
44    29    43    1
@<TRIPOS>SUBSTRUCTURE
1   ZINC000000897408 1     RESIDUE    1   A     ZIN   1
