@<TRIPOS>MOLECULE
ZINC000004658290
14    15    1     0     0
SMALL
USER_CHARGES
@<TRIPOS>ATOM
1      S1      0.0021   -0.0041    0.0020 S.2      1 ZINC000004658290   -0.5100
2      C2     -0.0211    1.7077    0.0114 C.2      1 ZINC000004658290    0.3600
3      N3     -1.1902    2.3860    0.0319 N.am     1 ZINC000004658290   -0.5700
4      C4     -1.1969    3.7430    0.0397 C.2      1 ZINC000004658290    0.3700
5      N5     -0.0969    4.4425    0.0275 N.2      1 ZINC000004658290   -0.5000
6      C6      1.1048    3.8477    0.0070 C.2      1 ZINC000004658290    0.2600
7      C7      1.1842    2.4515    0.0039 C.2      1 ZINC000004658290   -0.0300
8      N8      2.4966    2.1233   -0.0181 N.2      1 ZINC000004658290   -0.4200
9      C9      3.2126    3.2110   -0.0284 C.2      1 ZINC000004658290    0.2500
10     N10     2.3954    4.3014   -0.0092 N.pl3    1 ZINC000004658290   -0.5600
11     H11    -2.0295    1.8997    0.0408 H        1 ZINC000004658290    0.4400
12     H12    -2.1447    4.2605    0.0561 H        1 ZINC000004658290    0.2300
13     H13     4.2919    3.2439   -0.0461 H        1 ZINC000004658290    0.2400
14     H14     2.6772    5.2296   -0.0120 H        1 ZINC000004658290    0.4400
@<TRIPOS>BOND
1     1     2     2
2     2     7     1
3     2     3     am
4     3     4     1
5     3     11    1
6     4     5     2
7     4     12    1
8     5     6     1
9     6     10    1
10    6     7     2
11    7     8     1
12    8     9     2
13    9     10    1
14    9     13    1
15    10    14    1
@<TRIPOS>SUBSTRUCTURE
1   ZINC000004658290 1     RESIDUE    1   A     ZIN   1
