@<TRIPOS>MOLECULE
ZINC000000622123
41   43    0    0    0
SMALL
USER_CHARGES
NO_NAME
@<TRIPOS>ATOM
1 C1       -0.0173     1.4248     0.0099 C.3    1 <0>       0.0200
2 O2        0.0021    -0.0041     0.0020 O.3    1 <0>      -0.2900
3 C3        0.6049    -0.6062    -1.0541 C.ar   1 <0>       0.2600
4 C4        1.1703     0.1701    -2.0578 C.ar   1 <0>      -0.3400
5 C5        1.7866    -0.4377    -3.1358 C.ar   1 <0>       0.2800
6 O6        2.3397     0.3167    -4.1180 O.3    1 <0>      -0.2900
7 C7        2.2493     1.7356    -3.9749 C.3    1 <0>       0.0200
8 C8        1.8383    -1.8406    -3.2099 C.ar   1 <0>      -0.3300
9 C9        2.4149    -2.7448    -4.2093 C.2    1 <0>       0.4200
10 O10       2.9948    -2.4475    -5.2333 O.2    1 <0>      -0.3900
11 C11       2.1257    -4.1306    -3.6787 C.3    1 <0>       0.1000
12 O12       1.4196    -3.9454    -2.4536 O.3    1 <0>      -0.2400
13 C13       1.2645    -2.6244    -2.1938 C.ar   1 <0>       0.2400
14 C14       0.6556    -1.9922    -1.1183 C.ar   1 <0>      -0.1400
15 Cl15     -0.0516    -2.9407     0.1520 Cl     1 <0>      -0.0300
16 C16       1.2824    -4.8929    -4.6620 C.2    1 <0>       0.1800
17 O17       0.4310    -4.2241    -5.4625 O.3    1 <0>      -0.3000
18 C18      -0.3575    -5.0132    -6.3920 C.3    1 <0>       0.0200
19 C19       1.3647    -6.2332    -4.7557 C.2    1 <0>      -0.3300
20 C20       2.2386    -6.9749    -3.9478 C.2    1 <0>       0.4000
21 O21       2.2858    -8.1831    -4.0651 O.2    1 <0>      -0.4600
22 C22       3.1192    -6.2895    -2.9355 C.3    1 <0>      -0.1700
23 C23       3.4385    -4.8730    -3.4258 C.3    1 <0>      -0.0700
24 H24       4.0158    -4.3452    -2.6668 H      1 <0>       0.1100
25 C25       4.2462    -4.9495    -4.7230 C.3    1 <0>      -0.1700
26 H26       1.0053     1.8021     0.0021 H      1 <0>       0.0600
27 H27      -0.5445     1.7859    -0.8732 H      1 <0>       0.0600
28 H28      -0.5275     1.7763     0.9067 H      1 <0>       0.1100
29 H29       1.1281     1.2475    -1.9962 H      1 <0>       0.1600
30 H30       1.2007     2.0306    -3.9343 H      1 <0>       0.0600
31 H31       2.7484     2.0406    -3.0551 H      1 <0>       0.0600
32 H32       2.7297     2.2180    -4.8261 H      1 <0>       0.1100
33 H33       0.3080    -5.5575    -7.0620 H      1 <0>       0.0700
34 H34      -0.9726    -5.7213    -5.8366 H      1 <0>       0.0700
35 H35      -0.9998    -4.3532    -6.9750 H      1 <0>       0.1100
36 H36       0.7419    -6.7503    -5.4707 H      1 <0>       0.1500
37 H37       2.6006    -6.2358    -1.9783 H      1 <0>       0.1100
38 H38       4.0456    -6.8519    -2.8182 H      1 <0>       0.1100
39 H39       3.6656    -5.4736    -5.4822 H      1 <0>       0.0600
40 H40       4.4723    -3.9414    -5.0702 H      1 <0>       0.0800
41 H41       5.1762    -5.4882    -4.5408 H      1 <0>       0.0800
@<TRIPOS>BOND
1    1    2 1
2    1   26 1
3    1   27 1
4    1   28 1
5    2    3 1
6    3   14 ar
7    3    4 ar
8    4    5 ar
9    4   29 1
10    5    6 1
11    5    8 ar
12    6    7 1
13    7   30 1
14    7   31 1
15    7   32 1
16    8   13 ar
17    8    9 1
18    9   10 2
19    9   11 1
20   11   23 1
21   11   12 1
22   11   16 1
23   12   13 1
24   13   14 ar
25   14   15 1
26   16   17 1
27   16   19 2
28   17   18 1
29   18   33 1
30   18   34 1
31   18   35 1
32   19   20 1
33   19   36 1
34   20   21 2
35   20   22 1
36   22   23 1
37   22   37 1
38   22   38 1
39   23   24 1
40   23   25 1
41   25   39 1
42   25   40 1
43   25   41 1
