@<TRIPOS>MOLECULE
ZINC000000039089
27   27    0    0    0
SMALL
USER_CHARGES
NO_NAME
@<TRIPOS>ATOM
1 C1       -0.0178     1.4648     0.0101 C.3    1 <0>      -0.0500
2 N2        0.0021    -0.0041     0.0020 N.4    1 <0>      -0.5100
3 H3        0.4901    -0.3383     0.8195 H      1 <0>       0.4300
4 H4       -0.9445    -0.3533     0.0092 H      1 <0>       0.4300
5 C5        0.6897    -0.4778    -1.2066 C.3    1 <0>      -0.0400
6 C6        0.7104    -2.0077    -1.2150 C.3    1 <0>       0.1400
7 H7       -0.3122    -2.3849    -1.2073 H      1 <0>       0.1300
8 O8        1.4016    -2.4810    -0.0573 O.3    1 <0>      -0.5500
9 C9        1.4158    -2.4937    -2.4549 C.ar   1 <0>      -0.1400
10 C10       2.7928    -2.6117    -2.4633 C.ar   1 <0>      -0.1000
11 C11       3.4448    -3.0568    -3.5987 C.ar   1 <0>      -0.1200
12 C12       2.7175    -3.3859    -4.7308 C.ar   1 <0>       0.1000
13 O13       3.3571    -3.8241    -5.8481 O.3    1 <0>      -0.4900
14 C14       1.3307    -3.2674    -4.7222 C.ar   1 <0>       0.0900
15 O15       0.6123    -3.5897    -5.8310 O.3    1 <0>      -0.4800
16 C16       0.6834    -2.8259    -3.5798 C.ar   1 <0>      -0.1100
17 H17       1.0047     1.8421     0.0024 H      1 <0>       0.1200
18 H18      -0.5450     1.8259    -0.8730 H      1 <0>       0.1200
19 H19      -0.5280     1.8163     0.9069 H      1 <0>       0.1300
20 H20       0.1625    -0.1167    -2.0897 H      1 <0>       0.1500
21 H21       1.7123    -0.1005    -1.2143 H      1 <0>       0.1400
22 H22       2.3198    -2.1835     0.0016 H      1 <0>       0.3900
23 H23       3.3609    -2.3555    -1.5813 H      1 <0>       0.1300
24 H24       4.5209    -3.1475    -3.6029 H      1 <0>       0.1400
25 H25       3.4725    -4.7835    -5.8844 H      1 <0>       0.4000
26 H26       0.3352    -4.5155    -5.8648 H      1 <0>       0.4000
27 H27      -0.3926    -2.7331    -3.5706 H      1 <0>       0.1400
@<TRIPOS>BOND
1    1    2 1
2    1   17 1
3    1   18 1
4    1   19 1
5    2    3 1
6    2    4 1
7    2    5 1
8    5    6 1
9    5   20 1
10    5   21 1
11    6    7 1
12    6    8 1
13    6    9 1
14    8   22 1
15    9   16 ar
16    9   10 ar
17   10   11 ar
18   10   23 1
19   11   12 ar
20   11   24 1
21   12   13 1
22   12   14 ar
23   13   25 1
24   14   15 1
25   14   16 ar
26   15   26 1
27   16   27 1
