@<TRIPOS>MOLECULE
ZINC000096942201
44    45    1     0     0
SMALL
USER_CHARGES
@<TRIPOS>ATOM
1      C1     -2.4867   -0.9315    0.1676 C.3      1 ZINC000096942201   -0.1500
2      C2     -0.9730   -1.0866    0.0081 C.3      1 ZINC000096942201    0.0600
3      O3     -0.4201   -1.6264    1.2102 O.3      1 ZINC000096942201   -0.3500
4      C4      0.9142   -1.8265    1.2349 C.2      1 ZINC000096942201    0.5300
5      O5      1.5892   -1.5497    0.2610 O.2      1 ZINC000096942201   -0.4900
6      C6      1.5281   -2.3580    2.3927 C.2      1 ZINC000096942201   -0.2300
7      C7      1.4893   -3.6844    2.6076 C.2      1 ZINC000096942201    0.1800
8      C8      0.7865   -4.5783    1.6187 C.3      1 ZINC000096942201   -0.1300
9      N9      2.0806   -4.2328    3.7129 N.pl3    1 ZINC000096942201   -0.6300
10     C10     3.0124   -3.5237    4.4206 C.2      1 ZINC000096942201    0.2400
11     C11     3.9358   -4.2461    5.3675 C.3      1 ZINC000096942201   -0.1200
12     C12     3.1141   -2.1905    4.2820 C.2      1 ZINC000096942201   -0.2600
13     C13     4.0940   -1.4907    5.0235 C.2      1 ZINC000096942201    0.5200
14     O14     4.8338   -2.0954    5.7770 O.2      1 ZINC000096942201   -0.5200
15     O15     4.2087   -0.1521    4.8954 O.3      1 ZINC000096942201   -0.3400
16     C16     5.2201    0.4898    5.6745 C.3      1 ZINC000096942201    0.0400
17     C17     2.2148   -1.4287    3.3529 C.3      1 ZINC000096942201    0.0800
18     H18     2.8064   -0.7012    2.7971 H        1 ZINC000096942201    0.1100
19     C19     1.1675   -0.7044    4.1590 C.ar     1 ZINC000096942201   -0.0600
20     C20     0.3011   -1.4174    4.9658 C.ar     1 ZINC000096942201   -0.0800
21     C21    -0.6597   -0.7537    5.7060 C.ar     1 ZINC000096942201   -0.1000
22     C22    -0.7549    0.6235    5.6400 C.ar     1 ZINC000096942201   -0.1000
23     C23     0.1116    1.3388    4.8328 C.ar     1 ZINC000096942201   -0.0300
24     Cl24   -0.0074    3.0687    4.7494 Cl       1 ZINC000096942201   -0.0500
25     C25     1.0771    0.6746    4.0957 C.ar     1 ZINC000096942201   -0.0200
26     Cl26    2.1656    1.5708    3.0828 Cl       1 ZINC000096942201   -0.0400
27     H27    -2.6974   -0.2583    0.9986 H        1 ZINC000096942201    0.0700
28     H28    -2.9084   -0.5198   -0.7493 H        1 ZINC000096942201    0.0800
29     H29    -2.9328   -1.9058    0.3672 H        1 ZINC000096942201    0.0700
30     H30    -0.7623   -1.7598   -0.8230 H        1 ZINC000096942201    0.0700
31     H31    -0.5269   -0.1123   -0.1915 H        1 ZINC000096942201    0.0700
32     H32     1.5013   -4.9299    0.8747 H        1 ZINC000096942201    0.0900
33     H33     0.3573   -5.4326    2.1423 H        1 ZINC000096942201    0.0900
34     H34    -0.0076   -4.0191    1.1239 H        1 ZINC000096942201    0.0900
35     H35     1.8378   -5.1282    3.9962 H        1 ZINC000096942201    0.4200
36     H36     3.7111   -5.3126    5.3512 H        1 ZINC000096942201    0.0600
37     H37     4.9691   -4.0877    5.0590 H        1 ZINC000096942201    0.1100
38     H38     3.7950   -3.8605    6.3773 H        1 ZINC000096942201    0.1000
39     H39     5.2047    1.5618    5.4776 H        1 ZINC000096942201    0.1000
40     H40     5.0309    0.3121    6.7331 H        1 ZINC000096942201    0.0600
41     H41     6.1963    0.0853    5.4069 H        1 ZINC000096942201    0.0600
42     H42     0.3744   -2.4937    5.0179 H        1 ZINC000096942201    0.1300
43     H43    -1.3366   -1.3118    6.3360 H        1 ZINC000096942201    0.1400
44     H44    -1.5059    1.1413    6.2182 H        1 ZINC000096942201    0.1400
@<TRIPOS>BOND
1     1     2     1
2     1     27    1
3     1     28    1
4     1     29    1
5     2     3     1
6     2     30    1
7     2     31    1
8     3     4     1
9     4     5     2
10    4     6     1
11    6     17    1
12    6     7     2
13    7     8     1
14    7     9     1
15    8     32    1
16    8     33    1
17    8     34    1
18    9     10    1
19    9     35    1
20    10    11    1
21    10    12    2
22    11    36    1
23    11    37    1
24    11    38    1
25    12    13    1
26    12    17    1
27    13    14    2
28    13    15    1
29    15    16    1
30    16    39    1
31    16    40    1
32    16    41    1
33    17    18    1
34    17    19    1
35    19    25    ar
36    19    20    ar
37    20    21    ar
38    20    42    1
39    21    22    ar
40    21    43    1
41    22    23    ar
42    22    44    1
43    23    24    1
44    23    25    ar
45    25    26    1
@<TRIPOS>SUBSTRUCTURE
1   ZINC000096942201 1     RESIDUE    1   A     ZIN   1
