@<TRIPOS>MOLECULE
ZINC000085205448
43    44    1     0     0
SMALL
USER_CHARGES
@<TRIPOS>ATOM
1      C1     -0.6248    1.3445    1.4993 C.3      1 ZINC000085205448    0.0300
2      O2     -0.4733   -0.0621    1.7005 O.3      1 ZINC000085205448   -0.3500
3      C3      0.3349   -0.7202    0.8432 C.2      1 ZINC000085205448    0.5300
4      O4      0.8955   -0.1145   -0.0510 O.2      1 ZINC000085205448   -0.4800
5      C5      0.5303   -2.1137    0.9840 C.2      1 ZINC000085205448   -0.2200
6      C6      1.4004   -2.5661    1.9034 C.2      1 ZINC000085205448    0.1800
7      C7      2.1437   -1.5838    2.7715 C.3      1 ZINC000085205448   -0.1300
8      N8      1.6191   -3.9075    2.0609 N.pl3    1 ZINC000085205448   -0.6300
9      C9      1.2526   -4.7866    1.0786 C.2      1 ZINC000085205448    0.2500
10     C10     1.8380   -6.1752    1.0663 C.3      1 ZINC000085205448   -0.1200
11     C11     0.3763   -4.4270    0.1248 C.2      1 ZINC000085205448   -0.2700
12     C12     0.0257   -5.3590   -0.8794 C.2      1 ZINC000085205448    0.5200
13     O13     0.5160   -6.4727   -0.8737 O.2      1 ZINC000085205448   -0.5200
14     O14    -0.8525   -5.0132   -1.8439 O.3      1 ZINC000085205448   -0.3600
15     C15    -1.1608   -6.0042   -2.8262 C.3      1 ZINC000085205448    0.0400
16     C16    -0.2435   -3.0567    0.1070 C.3      1 ZINC000085205448    0.0600
17     C17    -1.6663   -3.1492    0.5949 C.ar     1 ZINC000085205448   -0.0100
18     C18    -1.9418   -3.7393    1.8140 C.ar     1 ZINC000085205448   -0.1000
19     C19    -3.2471   -3.8242    2.2616 C.ar     1 ZINC000085205448   -0.0700
20     C20    -4.2765   -3.3186    1.4902 C.ar     1 ZINC000085205448   -0.1100
21     C21    -4.0008   -2.7275    0.2712 C.ar     1 ZINC000085205448   -0.0600
22     C22    -2.6955   -2.6388   -0.1744 C.ar     1 ZINC000085205448   -0.0200
23     N23    -2.4003   -2.0060   -1.4795 N.pl3    1 ZINC000085205448    0.0300
24     O24    -1.4308   -1.2783   -1.5981 O.2      1 ZINC000085205448   -0.1500
25     O25    -3.1270   -2.2129   -2.4348 O.2      1 ZINC000085205448   -0.1500
26     H26    -1.0389    1.5271    0.5077 H        1 ZINC000085205448    0.0600
27     H27    -1.2985    1.7491    2.2546 H        1 ZINC000085205448    0.1000
28     H28     0.3475    1.8301    1.5821 H        1 ZINC000085205448    0.0600
29     H29     1.5270   -1.3187    3.6303 H        1 ZINC000085205448    0.1000
30     H30     3.0734   -2.0356    3.1174 H        1 ZINC000085205448    0.0900
31     H31     2.3683   -0.6866    2.1947 H        1 ZINC000085205448    0.0900
32     H32     2.0361   -4.2367    2.8725 H        1 ZINC000085205448    0.4200
33     H33     2.5225   -6.2884    1.9069 H        1 ZINC000085205448    0.0700
34     H34     1.0358   -6.9084    1.1495 H        1 ZINC000085205448    0.1000
35     H35     2.3791   -6.3330    0.1333 H        1 ZINC000085205448    0.1100
36     H36    -1.8768   -5.5976   -3.5403 H        1 ZINC000085205448    0.1000
37     H37    -0.2494   -6.2927   -3.3497 H        1 ZINC000085205448    0.0600
38     H38    -1.5914   -6.8784   -2.3377 H        1 ZINC000085205448    0.0600
39     H39    -0.2390   -2.6740   -0.9136 H        1 ZINC000085205448    0.1100
40     H40    -1.1375   -4.1344    2.4167 H        1 ZINC000085205448    0.1400
41     H41    -3.4625   -4.2860    3.2139 H        1 ZINC000085205448    0.1400
42     H42    -5.2963   -3.3856    1.8396 H        1 ZINC000085205448    0.1500
43     H43    -4.8052   -2.3327   -0.3318 H        1 ZINC000085205448    0.1500
@<TRIPOS>BOND
1     1     2     1
2     1     26    1
3     1     27    1
4     1     28    1
5     2     3     1
6     3     4     2
7     3     5     1
8     5     16    1
9     5     6     2
10    6     7     1
11    6     8     1
12    7     29    1
13    7     30    1
14    7     31    1
15    8     9     1
16    8     32    1
17    9     10    1
18    9     11    2
19    10    33    1
20    10    34    1
21    10    35    1
22    11    12    1
23    11    16    1
24    12    13    2
25    12    14    1
26    14    15    1
27    15    36    1
28    15    37    1
29    15    38    1
30    16    17    1
31    16    39    1
32    17    22    ar
33    17    18    ar
34    18    19    ar
35    18    40    1
36    19    20    ar
37    19    41    1
38    20    21    ar
39    20    42    1
40    21    22    ar
41    21    43    1
42    22    23    1
43    23    24    2
44    23    25    2
@<TRIPOS>SUBSTRUCTURE
1   ZINC000085205448 1     RESIDUE    1   A     ZIN   1
