@<TRIPOS>MOLECULE
ZINC000000538509
56   57    0    0    0
SMALL
USER_CHARGES
NO_NAME
@<TRIPOS>ATOM
1 C1        0.4884     1.7435     0.0900 C.3    1 <0>       0.0200
2 O2        0.5778     0.3184     0.1462 O.3    1 <0>      -0.3000
3 C3        1.1443    -0.3072    -0.9203 C.ar   1 <0>       0.1400
4 C4        1.6072     0.4351    -1.9905 C.ar   1 <0>      -0.1700
5 C5        2.1891    -0.2081    -3.0857 C.ar   1 <0>      -0.0600
6 C6        2.6846     0.5822    -4.2297 C.2    1 <0>       0.5600
7 O7        2.5866     1.7940    -4.2194 O.2    1 <0>      -0.5300
8 N8        3.2458    -0.0396    -5.2856 N.am   1 <0>      -0.7200
9 C9        3.7376     0.7448    -6.4210 C.3    1 <0>       0.1700
10 C10       4.3139    -0.1823    -7.4600 C.ar   1 <0>      -0.1600
11 C11       5.6515    -0.5289    -7.4098 C.ar   1 <0>      -0.0600
12 C12       6.1822    -1.3785    -8.3610 C.ar   1 <0>      -0.1500
13 C13       5.3718    -1.8845    -9.3669 C.ar   1 <0>       0.1400
14 O14       5.8915    -2.7209   -10.3035 O.3    1 <0>      -0.3000
15 C15       4.9985    -3.2033   -11.3095 C.3    1 <0>       0.0600
16 C16       5.7581    -4.1237   -12.2669 C.3    1 <0>       0.0500
17 N17       6.2076    -5.3201   -11.5427 N.3    1 <0>      -0.5400
18 C18       5.0907    -6.2458   -11.3110 C.3    1 <0>       0.0200
19 C19       7.3045    -5.9869   -12.2570 C.3    1 <0>       0.0200
20 C20       4.0300    -1.5356    -9.4148 C.ar   1 <0>      -0.2100
21 C21       3.5030    -0.6894    -8.4584 C.ar   1 <0>      -0.0600
22 C22       2.3016    -1.6006    -3.0961 C.ar   1 <0>      -0.2000
23 C23       1.8371    -2.3383    -2.0233 C.ar   1 <0>       0.1400
24 O24       1.9463    -3.6939    -2.0328 O.3    1 <0>      -0.3000
25 C25       2.5512    -4.2880    -3.1831 C.3    1 <0>       0.0200
26 C26       1.2628    -1.6944    -0.9306 C.ar   1 <0>       0.0600
27 O27       0.8073    -2.4219     0.1230 O.3    1 <0>      -0.3100
28 C28       1.7341    -2.6858     1.1782 C.3    1 <0>       0.0400
29 H29       1.4886     2.1671    -0.0006 H      1 <0>       0.0600
30 H30      -0.1097     2.0363    -0.7730 H      1 <0>       0.0600
31 H31       0.0179     2.1143     1.0007 H      1 <0>       0.1100
32 H32       1.5188     1.5115    -1.9803 H      1 <0>       0.1500
33 H33       3.3240    -1.0064    -5.2938 H      1 <0>       0.4000
34 H34       2.9136     1.3105    -6.8559 H      1 <0>       0.0800
35 H35       4.5106     1.4332    -6.0794 H      1 <0>       0.0800
36 H36       6.2820    -0.1347    -6.6265 H      1 <0>       0.1300
37 H37       7.2273    -1.6484    -8.3218 H      1 <0>       0.1300
38 H38       4.1870    -3.7584   -10.8391 H      1 <0>       0.0600
39 H39       4.5877    -2.3603   -11.8652 H      1 <0>       0.0700
40 H40       5.1009    -4.4195   -13.0846 H      1 <0>       0.0600
41 H41       6.6231    -3.5959   -12.6687 H      1 <0>       0.0900
42 H42       4.6699    -6.5542   -12.2681 H      1 <0>       0.0300
43 H43       5.4512    -7.1227   -10.7732 H      1 <0>       0.0700
44 H44       4.3224    -5.7475   -10.7199 H      1 <0>       0.0700
45 H45       8.1757    -5.3321   -12.2775 H      1 <0>       0.0700
46 H46       7.5596    -6.9152   -11.7459 H      1 <0>       0.0700
47 H47       6.9920    -6.2080   -13.2775 H      1 <0>       0.0300
48 H48       3.3971    -1.9280   -10.1971 H      1 <0>       0.1300
49 H49       2.4583    -0.4178    -8.4950 H      1 <0>       0.1300
50 H50       2.7507    -2.1002    -3.9417 H      1 <0>       0.1400
51 H51       1.9710    -4.0347    -4.0704 H      1 <0>       0.0600
52 H52       3.5681    -3.9115    -3.2942 H      1 <0>       0.0600
53 H53       2.5760    -5.3710    -3.0621 H      1 <0>       0.1100
54 H54       2.5847    -3.2419     0.7841 H      1 <0>       0.0500
55 H55       2.0810    -1.7430     1.6014 H      1 <0>       0.0500
56 H56       1.2436    -3.2736     1.9541 H      1 <0>       0.1000
@<TRIPOS>BOND
1    1    2 1
2    1   29 1
3    1   30 1
4    1   31 1
5    2    3 1
6    3   26 ar
7    3    4 ar
8    4    5 ar
9    4   32 1
10    5    6 1
11    5   22 ar
12    6    7 2
13    6    8 am
14    8    9 1
15    8   33 1
16    9   10 1
17    9   34 1
18    9   35 1
19   10   21 ar
20   10   11 ar
21   11   12 ar
22   11   36 1
23   12   13 ar
24   12   37 1
25   13   14 1
26   13   20 ar
27   14   15 1
28   15   16 1
29   15   38 1
30   15   39 1
31   16   17 1
32   16   40 1
33   16   41 1
34   17   18 1
35   17   19 1
36   18   42 1
37   18   43 1
38   18   44 1
39   19   45 1
40   19   46 1
41   19   47 1
42   20   21 ar
43   20   48 1
44   21   49 1
45   22   23 ar
46   22   50 1
47   23   24 1
48   23   26 ar
49   24   25 1
50   25   51 1
51   25   52 1
52   25   53 1
53   26   27 1
54   27   28 1
55   28   54 1
56   28   55 1
57   28   56 1
