@<TRIPOS>MOLECULE
ZINC000000538065
66    69    1     0     0
SMALL
USER_CHARGES
@<TRIPOS>ATOM
1      C1     -0.0187    1.5258    0.0104 C.3      1 ZINC000000538065   -0.1400
2      C2      0.0021   -0.0041    0.0020 C.3      1 ZINC000000538065   -0.0500
3      C3      0.7309   -0.5033    1.2229 C.2      1 ZINC000000538065    0.3100
4      N4      1.2551    0.2400    2.1434 N.2      1 ZINC000000538065   -0.2900
5      N5      1.8380   -0.5994    3.1028 N.am     1 ZINC000000538065   -0.4600
6      C6      2.5409   -0.1747    4.3159 C.3      1 ZINC000000538065    0.1700
7      C7      4.0292    0.0012    4.0079 C.3      1 ZINC000000538065   -0.1700
8      C8      4.7633    0.4447    5.2749 C.3      1 ZINC000000538065    0.0000
9      N9      6.1923    0.6136    4.9791 N.4      1 ZINC000000538065   -0.3900
10     H10     6.5562   -0.2391    4.5808 H        1 ZINC000000538065    0.4200
11     C11     6.9157    0.9218    6.2198 C.3      1 ZINC000000538065    0.0000
12     C12     8.4071    1.0792    5.9152 C.3      1 ZINC000000538065    0.0200
13     N13     8.5930    2.1609    4.9377 N.3      1 ZINC000000538065   -0.4900
14     C14     9.9487    2.3704    4.6749 C.ar     1 ZINC000000538065    0.1000
15     C15    10.9089    1.5926    5.3092 C.ar     1 ZINC000000538065   -0.1600
16     C16    12.2489    1.8016    5.0472 C.ar     1 ZINC000000538065   -0.0800
17     C17    12.6356    2.7841    4.1549 C.ar     1 ZINC000000538065   -0.1200
18     C18    11.6818    3.5617    3.5211 C.ar     1 ZINC000000538065   -0.0100
19     Cl19   12.1720    4.7948    2.4018 Cl       1 ZINC000000538065   -0.0500
20     C20    10.3393    3.3533    3.7744 C.ar     1 ZINC000000538065   -0.1200
21     C21     7.8541    1.8779    3.6992 C.3      1 ZINC000000538065    0.0300
22     C22     6.3673    1.7142    4.0223 C.3      1 ZINC000000538065   -0.0100
23     C23     1.6312   -1.8712    2.7020 C.2      1 ZINC000000538065    0.6500
24     O24     1.9952   -2.8785    3.2823 O.2      1 ZINC000000538065   -0.5500
25     N25     0.9426   -1.8219    1.5440 N.am     1 ZINC000000538065   -0.5500
26     C26     0.5039   -2.9773    0.7572 C.3      1 ZINC000000538065    0.1300
27     C27    -0.8887   -3.4103    1.2200 C.3      1 ZINC000000538065    0.0400
28     O28    -1.8304   -2.3754    0.9294 O.3      1 ZINC000000538065   -0.3200
29     C29    -3.1238   -2.6021    1.2794 C.ar     1 ZINC000000538065    0.1200
30     C30    -3.4784   -3.7936    1.8952 C.ar     1 ZINC000000538065   -0.2100
31     C31    -4.7938   -4.0215    2.2505 C.ar     1 ZINC000000538065   -0.0800
32     C32    -5.7567   -3.0634    1.9924 C.ar     1 ZINC000000538065   -0.1500
33     C33    -5.4060   -1.8752    1.3784 C.ar     1 ZINC000000538065   -0.0800
34     C34    -4.0909   -1.6400    1.0267 C.ar     1 ZINC000000538065   -0.1500
35     H35     1.0039    1.9031    0.0027 H        1 ZINC000000538065    0.0600
36     H36    -0.5459    1.8868   -0.8726 H        1 ZINC000000538065    0.0700
37     H37    -0.5289    1.8773    0.9072 H        1 ZINC000000538065    0.0600
38     H38    -1.0205   -0.3814    0.0098 H        1 ZINC000000538065    0.1100
39     H39     0.5123   -0.3556   -0.8948 H        1 ZINC000000538065    0.1000
40     H40     2.1273    0.7723    4.6628 H        1 ZINC000000538065    0.1100
41     H41     2.4172   -0.9309    5.0911 H        1 ZINC000000538065    0.1000
42     H42     4.4428   -0.9458    3.6610 H        1 ZINC000000538065    0.0900
43     H43     4.1530    0.7574    3.2327 H        1 ZINC000000538065    0.1000
44     H44     4.3497    1.3917    5.6217 H        1 ZINC000000538065    0.1400
45     H45     4.6396   -0.3115    6.0501 H        1 ZINC000000538065    0.1400
46     H46     6.5315    1.8497    6.6434 H        1 ZINC000000538065    0.1400
47     H47     6.7744    0.1105    6.9339 H        1 ZINC000000538065    0.1400
48     H48     8.9420    1.3226    6.8332 H        1 ZINC000000538065    0.1300
49     H49     8.7947    0.1470    5.5043 H        1 ZINC000000538065    0.0700
50     H50    10.6080    0.8252    6.0070 H        1 ZINC000000538065    0.1300
51     H51    12.9956    1.1968    5.5403 H        1 ZINC000000538065    0.1400
52     H52    13.6841    2.9456    3.9522 H        1 ZINC000000538065    0.1400
53     H53     9.5952    3.9600    3.2799 H        1 ZINC000000538065    0.1400
54     H54     7.9855    2.7041    3.0004 H        1 ZINC000000538065    0.1300
55     H55     8.2326    0.9589    3.2517 H        1 ZINC000000538065    0.0700
56     H56     5.8191    1.4902    3.1071 H        1 ZINC000000538065    0.1400
57     H57     5.9861    2.6381    4.4571 H        1 ZINC000000538065    0.1400
58     H58     0.4681   -2.7059   -0.2978 H        1 ZINC000000538065    0.1100
59     H59     1.2053   -3.7997    0.8973 H        1 ZINC000000538065    0.1200
60     H60    -1.1781   -4.3220    0.6974 H        1 ZINC000000538065    0.0900
61     H61    -0.8732   -3.5963    2.2939 H        1 ZINC000000538065    0.0700
62     H62    -2.7267   -4.5426    2.0963 H        1 ZINC000000538065    0.1300
63     H63    -5.0703   -4.9489    2.7299 H        1 ZINC000000538065    0.1300
64     H64    -6.7846   -3.2435    2.2706 H        1 ZINC000000538065    0.1300
65     H65    -6.1600   -1.1286    1.1775 H        1 ZINC000000538065    0.1300
66     H66    -3.8174   -0.7118    0.5471 H        1 ZINC000000538065    0.1300
@<TRIPOS>BOND
1     1     2     1
2     1     35    1
3     1     36    1
4     1     37    1
5     2     3     1
6     2     38    1
7     2     39    1
8     3     25    1
9     3     4     2
10    4     5     1
11    5     6     1
12    5     23    am
13    6     7     1
14    6     40    1
15    6     41    1
16    7     8     1
17    7     42    1
18    7     43    1
19    8     9     1
20    8     44    1
21    8     45    1
22    9     10    1
23    9     22    1
24    9     11    1
25    11    12    1
26    11    46    1
27    11    47    1
28    12    13    1
29    12    48    1
30    12    49    1
31    13    14    1
32    13    21    1
33    14    20    ar
34    14    15    ar
35    15    16    ar
36    15    50    1
37    16    17    ar
38    16    51    1
39    17    18    ar
40    17    52    1
41    18    19    1
42    18    20    ar
43    20    53    1
44    21    22    1
45    21    54    1
46    21    55    1
47    22    56    1
48    22    57    1
49    23    24    2
50    23    25    am
51    25    26    1
52    26    27    1
53    26    58    1
54    26    59    1
55    27    28    1
56    27    60    1
57    27    61    1
58    28    29    1
59    29    34    ar
60    29    30    ar
61    30    31    ar
62    30    62    1
63    31    32    ar
64    31    63    1
65    32    33    ar
66    32    64    1
67    33    34    ar
68    33    65    1
69    34    66    1
@<TRIPOS>SUBSTRUCTURE
1   ZINC000000538065 1     RESIDUE    1   A     ZIN   1
