@<TRIPOS>MOLECULE
ZINC000003812933
35    37    1     0     0
SMALL
USER_CHARGES
@<TRIPOS>ATOM
1      C1     -0.0187    1.5258    0.0104 C.3      1 ZINC000003812933   -0.1500
2      C2      0.0021   -0.0041    0.0020 C.3      1 ZINC000003812933   -0.0500
3      C3     -1.4333   -0.5336    0.0129 C.3      1 ZINC000003812933   -0.1100
4      C4     -1.4126   -2.0635    0.0045 C.3      1 ZINC000003812933   -0.0800
5      C5     -0.6726   -2.5703    1.2440 C.3      1 ZINC000003812933   -0.1300
6      C6      0.7628   -2.0407    1.2331 C.3      1 ZINC000003812933    0.0600
7      N7      1.4733   -2.5274    2.4232 N.4      1 ZINC000003812933   -0.6400
8      H8      1.4870   -3.5363    2.4177 H        1 ZINC000003812933    0.4300
9      H9      2.4199   -2.1781    2.4161 H        1 ZINC000003812933    0.4300
10     H10     1.0010   -2.2020    3.2534 H        1 ZINC000003812933    0.4300
11     C11     0.7421   -0.5109    1.2415 C.3      1 ZINC000003812933   -0.1200
12     C12     1.4790   -2.5342   -0.0257 C.3      1 ZINC000003812933   -0.1200
13     C13     0.7390   -2.0273   -1.2652 C.3      1 ZINC000003812933   -0.0500
14     C14     1.4551   -2.5207   -2.5240 C.3      1 ZINC000003812933   -0.1500
15     C15    -0.6964   -2.5569   -1.2543 C.3      1 ZINC000003812933   -0.1100
16     C16     0.7182   -0.4975   -1.2568 C.3      1 ZINC000003812933   -0.1100
17     H17     1.0039    1.9031    0.0027 H        1 ZINC000003812933    0.0600
18     H18    -0.5459    1.8868   -0.8726 H        1 ZINC000003812933    0.0700
19     H19    -0.5289    1.8773    0.9072 H        1 ZINC000003812933    0.0600
20     H20    -1.9435   -0.1821    0.9097 H        1 ZINC000003812933    0.0700
21     H21    -1.9605   -0.1726   -0.8702 H        1 ZINC000003812933    0.0800
22     H22    -2.4352   -2.4408    0.0122 H        1 ZINC000003812933    0.0900
23     H23    -1.1828   -2.2188    2.1408 H        1 ZINC000003812933    0.0900
24     H24    -0.6578   -3.6602    1.2380 H        1 ZINC000003812933    0.0900
25     H25     1.7647   -0.1336    1.2338 H        1 ZINC000003812933    0.0900
26     H26     0.2319   -0.1594    2.1383 H        1 ZINC000003812933    0.0900
27     H27     2.5015   -2.1569   -0.0334 H        1 ZINC000003812933    0.0900
28     H28     1.4937   -3.6240   -0.0317 H        1 ZINC000003812933    0.0900
29     H29     1.4699   -3.6106   -2.5300 H        1 ZINC000003812933    0.0600
30     H30     0.9279   -2.1597   -3.4071 H        1 ZINC000003812933    0.0700
31     H31     2.4777   -2.1435   -2.5317 H        1 ZINC000003812933    0.0600
32     H32    -0.6816   -3.6468   -1.2603 H        1 ZINC000003812933    0.0700
33     H33    -1.2236   -2.1958   -2.1374 H        1 ZINC000003812933    0.0800
34     H34     0.1910   -0.1364   -2.1398 H        1 ZINC000003812933    0.0800
35     H35     1.7408   -0.1202   -1.2645 H        1 ZINC000003812933    0.0700
@<TRIPOS>BOND
1     1     2     1
2     1     17    1
3     1     18    1
4     1     19    1
5     2     11    1
6     2     16    1
7     2     3     1
8     3     4     1
9     3     20    1
10    3     21    1
11    4     15    1
12    4     5     1
13    4     22    1
14    5     6     1
15    5     23    1
16    5     24    1
17    6     7     1
18    6     11    1
19    6     12    1
20    7     8     1
21    7     9     1
22    7     10    1
23    11    25    1
24    11    26    1
25    12    13    1
26    12    27    1
27    12    28    1
28    13    14    1
29    13    15    1
30    13    16    1
31    14    29    1
32    14    30    1
33    14    31    1
34    15    32    1
35    15    33    1
36    16    34    1
37    16    35    1
@<TRIPOS>SUBSTRUCTURE
1   ZINC000003812933 1     RESIDUE    1   A     ZIN   1
