@<TRIPOS>MOLECULE
ZINC000000001688
18   18    0    0    0
SMALL
USER_CHARGES
NO_NAME
@<TRIPOS>ATOM
1 N1       -0.0116     1.0048     0.0076 N.4    1 <0>      -0.5500
2 H2        0.0021    -0.0041     0.0020 H      1 <0>       0.4300
3 H3        0.9350     1.3541     0.0004 H      1 <0>       0.4400
4 H4       -0.4996     1.3391    -0.8099 H      1 <0>       0.4300
5 C5       -0.6660     1.4557     1.1578 C.ar   1 <0>      -0.1000
6 C6       -2.0360     1.6617     1.1355 C.ar   1 <0>      -0.0800
7 C7       -2.6946     2.1067     2.2645 C.ar   1 <0>      -0.1500
8 C8       -1.9866     2.3516     3.4316 C.ar   1 <0>       0.2000
9 O9       -2.6321     2.7888     4.5411 O.3    1 <0>      -0.4700
10 C10      -0.5989     2.1444     3.4588 C.ar   1 <0>      -0.1400
11 C11       0.1640     2.4006     4.6909 C.2    1 <0>       0.5100
12 O12       1.3737     2.2187     4.7104 O.co2  1 <0>      -0.6800
13 O13      -0.4114     2.7955     5.6957 O.co2  1 <0>      -0.6500
14 C14       0.0536     1.6876     2.3093 C.ar   1 <0>      -0.0400
15 H15      -2.5922     1.4732     0.2292 H      1 <0>       0.1400
16 H16      -3.7627     2.2647     2.2386 H      1 <0>       0.1500
17 H17      -2.9489     2.0794     5.1170 H      1 <0>       0.4100
18 H18       1.1213     1.5255     2.3217 H      1 <0>       0.1500
@<TRIPOS>BOND
1    1    2 1
2    1    3 1
3    1    4 1
4    1    5 1
5    5   14 ar
6    5    6 ar
7    6    7 ar
8    6   15 1
9    7    8 ar
10    7   16 1
11    8    9 1
12    8   10 ar
13    9   17 1
14   10   11 1
15   10   14 ar
16   11   12 ar
17   11   13 ar
18   14   18 1
