@<TRIPOS>MOLECULE
ZINC000000896546
12   12    0    0    0
SMALL
USER_CHARGES
NO_NAME
@<TRIPOS>ATOM
1 N1       -0.0166     1.3721     0.0096 N.pl3  1 <0>      -0.8500
2 C2        0.0021    -0.0041     0.0020 C.2    1 <0>       0.4600
3 N3       -1.1353    -0.6865     0.0037 N.2    1 <0>      -0.6700
4 C4       -1.1301    -2.0182    -0.0035 C.2    1 <0>       0.6100
5 O5       -2.1902    -2.6221    -0.0021 O.2    1 <0>      -0.6100
6 N6        0.0246    -2.7090    -0.0127 N.pl3  1 <0>      -0.6600
7 C7        1.2207    -2.0521    -0.0148 C.2    1 <0>       0.1800
8 C8        1.2316    -0.6971    -0.0134 C.2    1 <0>      -0.2300
9 F9        2.4009    -0.0203    -0.0155 F      1 <0>      -0.1700
10 H10       0.8168     1.8684     0.0043 H      1 <0>       0.4000
11 H11      -0.8631     1.8456     0.0162 H      1 <0>       0.4000
12 H12       2.1479    -2.6058    -0.0218 H      1 <0>       0.1400
@<TRIPOS>BOND
1    1    2 1
2    1   10 1
3    1   11 1
4    2    8 1
5    2    3 2
6    3    4 1
7    4    5 2
8    4    6 1
9    6    7 1
10    7    8 2
11    7   12 1
12    8    9 1
