@<TRIPOS>MOLECULE
ZINC000017285869
47    47    1     0     0
SMALL
USER_CHARGES
@<TRIPOS>ATOM
1      C1     -0.6224    2.9448   -1.1329 C.3      1 ZINC000017285869   -0.1500
2      C2     -0.5449    1.4215   -1.2537 C.3      1 ZINC000017285869   -0.1300
3      C3     -1.9418    0.8239   -1.0736 C.3      1 ZINC000017285869   -0.1200
4      C4     -1.8643   -0.6993   -1.1944 C.3      1 ZINC000017285869   -0.1100
5      C5     -3.2612   -1.2970   -1.0144 C.3      1 ZINC000017285869   -0.0900
6      H6     -3.6827   -0.9569   -0.0685 H        1 ZINC000017285869    0.0800
7      C7     -4.1616   -0.8449   -2.1658 C.3      1 ZINC000017285869   -0.1200
8      C8     -5.6010   -1.2847   -1.8906 C.3      1 ZINC000017285869   -0.1600
9      C9     -3.1660   -2.8240   -1.0106 C.3      1 ZINC000017285869    0.0700
10     O10    -4.4444   -3.3802   -0.6970 O.3      1 ZINC000017285869   -0.3400
11     C11    -4.5328   -4.7259   -0.6527 C.2      1 ZINC000017285869    0.4900
12     O12    -3.5501   -5.4076   -0.8747 O.2      1 ZINC000017285869   -0.5000
13     C13    -5.7711   -5.3453   -0.3476 C.2      1 ZINC000017285869   -0.2200
14     C14    -5.8289   -6.6812   -0.1553 C.2      1 ZINC000017285869    0.0200
15     C15    -4.5917   -7.4493    0.0423 C.ar     1 ZINC000017285869   -0.1200
16     C16    -3.6024   -6.9758    0.9123 C.ar     1 ZINC000017285869   -0.0200
17     C17    -2.4456   -7.6993    1.0942 C.ar     1 ZINC000017285869   -0.1600
18     C18    -2.2586   -8.8981    0.4154 C.ar     1 ZINC000017285869    0.1400
19     O19    -1.1161   -9.6077    0.5983 O.3      1 ZINC000017285869   -0.3200
20     C20    -0.9884  -10.8306   -0.1298 C.3      1 ZINC000017285869    0.0300
21     C21    -3.2379   -9.3728   -0.4497 C.ar     1 ZINC000017285869   -0.2200
22     C22    -4.4009   -8.6599   -0.6343 C.ar     1 ZINC000017285869   -0.0500
23     H23     0.3727    3.3706   -1.2612 H        1 ZINC000017285869    0.0500
24     H24    -1.2874    3.3369   -1.9024 H        1 ZINC000017285869    0.0500
25     H25    -1.0079    3.2121   -0.1490 H        1 ZINC000017285869    0.0500
26     H26    -0.1594    1.1542   -2.2376 H        1 ZINC000017285869    0.0600
27     H27     0.1200    1.0294   -0.4841 H        1 ZINC000017285869    0.0600
28     H28    -2.3273    1.0912   -0.0897 H        1 ZINC000017285869    0.0600
29     H29    -2.6067    1.2160   -1.8432 H        1 ZINC000017285869    0.0700
30     H30    -1.4788   -0.9666   -2.1783 H        1 ZINC000017285869    0.0700
31     H31    -1.1994   -1.0915   -0.4249 H        1 ZINC000017285869    0.0700
32     H32    -4.1236    0.2410   -2.2520 H        1 ZINC000017285869    0.0700
33     H33    -3.8156   -1.2955   -3.0961 H        1 ZINC000017285869    0.0600
34     H34    -6.2508   -0.9195   -2.6858 H        1 ZINC000017285869    0.0500
35     H35    -5.6477   -2.3731   -1.8541 H        1 ZINC000017285869    0.0700
36     H36    -5.9298   -0.8747   -0.9356 H        1 ZINC000017285869    0.0500
37     H37    -2.8504   -3.1708   -1.9946 H        1 ZINC000017285869    0.0700
38     H38    -2.4386   -3.1409   -0.2632 H        1 ZINC000017285869    0.0700
39     H39    -6.6682   -4.7491   -0.2688 H        1 ZINC000017285869    0.1500
40     H40    -6.7843   -7.1848   -0.1468 H        1 ZINC000017285869    0.1500
41     H41    -3.7464   -6.0443    1.4396 H        1 ZINC000017285869    0.1200
42     H42    -1.6817   -7.3349    1.7652 H        1 ZINC000017285869    0.1300
43     H43    -0.0319  -11.2965    0.1073 H        1 ZINC000017285869    0.1000
44     H44    -1.7992  -11.5046    0.1467 H        1 ZINC000017285869    0.0600
45     H45    -1.0366  -10.6237   -1.1989 H        1 ZINC000017285869    0.0600
46     H46    -3.0876  -10.3045   -0.9749 H        1 ZINC000017285869    0.1300
47     H47    -5.1610   -9.0295   -1.3066 H        1 ZINC000017285869    0.1300
@<TRIPOS>BOND
1     1     2     1
2     1     23    1
3     1     24    1
4     1     25    1
5     2     3     1
6     2     26    1
7     2     27    1
8     3     4     1
9     3     28    1
10    3     29    1
11    4     5     1
12    4     30    1
13    4     31    1
14    5     6     1
15    5     7     1
16    5     9     1
17    7     8     1
18    7     32    1
19    7     33    1
20    8     34    1
21    8     35    1
22    8     36    1
23    9     10    1
24    9     37    1
25    9     38    1
26    10    11    1
27    11    12    2
28    11    13    1
29    13    14    2
30    13    39    1
31    14    15    1
32    14    40    1
33    15    22    ar
34    15    16    ar
35    16    17    ar
36    16    41    1
37    17    18    ar
38    17    42    1
39    18    19    1
40    18    21    ar
41    19    20    1
42    20    43    1
43    20    44    1
44    20    45    1
45    21    22    ar
46    21    46    1
47    22    47    1
@<TRIPOS>SUBSTRUCTURE
1   ZINC000017285869 1     RESIDUE    1   A     ZIN   1
