@<TRIPOS>MOLECULE
ZINC000011616925
56    58    1     0     0
SMALL
USER_CHARGES
@<TRIPOS>ATOM
1      C1      0.0180   -1.1779   -0.0044 C.1      1 ZINC000011616925   -0.2000
2      C2      0.0021   -0.0041    0.0020 C.1      1 ZINC000011616925   -0.1900
3      C3     -0.0179    1.4678    0.0101 C.3      1 ZINC000011616925    0.0000
4      C4      1.4175    1.9974   -0.0007 C.3      1 ZINC000011616925   -0.0300
5      H5      1.9704    1.5656    0.8335 H        1 ZINC000011616925    0.0900
6      C6      1.3998    3.5214    0.1333 C.3      1 ZINC000011616925   -0.0600
7      C7      0.8452    3.9006    1.4823 C.ar     1 ZINC000011616925    0.0600
8      C8      1.6927    3.9496    2.5880 C.ar     1 ZINC000011616925    0.1500
9      N9      1.2314    4.2777    3.7764 N.ar     1 ZINC000011616925   -0.4400
10     C10    -0.0635    4.5673    3.9233 C.ar     1 ZINC000011616925    0.3700
11     N11    -0.5834    4.9073    5.1096 N.ar     1 ZINC000011616925   -0.6000
12     C12    -1.8645    5.1903    5.2352 C.ar     1 ZINC000011616925    0.6300
13     N13    -2.3389    5.5341    6.4867 N.pl3    1 ZINC000011616925   -0.8100
14     N14    -2.7246    5.1630    4.2216 N.ar     1 ZINC000011616925   -0.6300
15     C15    -2.3342    4.8413    2.9963 C.ar     1 ZINC000011616925    0.5400
16     N16    -3.2275    4.8142    1.9479 N.pl3    1 ZINC000011616925   -0.7900
17     C17    -0.9206    4.5163    2.7957 C.ar     1 ZINC000011616925   -0.0900
18     N18    -0.4337    4.1875    1.6038 N.ar     1 ZINC000011616925   -0.3800
19     C19     2.0843    1.6148   -1.2969 C.ar     1 ZINC000011616925   -0.0700
20     C20     1.5589    2.0565   -2.4983 C.ar     1 ZINC000011616925   -0.1200
21     C21     2.1642    1.7096   -3.6885 C.ar     1 ZINC000011616925   -0.0600
22     C22     3.3092    0.9115   -3.6788 C.ar     1 ZINC000011616925   -0.1000
23     C23     3.9634    0.5362   -4.9505 C.2      1 ZINC000011616925    0.5500
24     O24     3.5041    0.9228   -6.0074 O.2      1 ZINC000011616925   -0.5500
25     N25     5.0689   -0.2346   -4.9378 N.am     1 ZINC000011616925   -0.6800
26     C26     5.7171   -0.6064   -6.1978 C.3      1 ZINC000011616925    0.0700
27     H27     5.6320    0.2169   -6.9070 H        1 ZINC000011616925    0.0800
28     C28     7.1951   -0.9080   -5.9415 C.3      1 ZINC000011616925   -0.0800
29     C29     7.9039    0.3680   -5.4829 C.3      1 ZINC000011616925   -0.1800
30     C30     9.3596    0.0710   -5.2304 C.2      1 ZINC000011616925    0.4900
31     O31     9.7902   -1.0568   -5.4015 O.co2    1 ZINC000011616925   -0.7000
32     O32    10.1066    0.9584   -4.8552 O.co2    1 ZINC000011616925   -0.7200
33     C33     5.0459   -1.8303   -6.7660 C.2      1 ZINC000011616925    0.5000
34     O34     4.1126   -2.3442   -6.1732 O.co2    1 ZINC000011616925   -0.7000
35     O35     5.4362   -2.3065   -7.8183 O.co2    1 ZINC000011616925   -0.7000
36     C36     3.8343    0.4696   -2.4634 C.ar     1 ZINC000011616925   -0.0800
37     C37     3.2223    0.8281   -1.2801 C.ar     1 ZINC000011616925   -0.1200
38     H38     0.0322   -2.2278   -0.0102 H        1 ZINC000011616925    0.2100
39     H39    -0.5451    1.8289   -0.8729 H        1 ZINC000011616925    0.0900
40     H40    -0.5281    1.8193    0.9069 H        1 ZINC000011616925    0.0800
41     H41     2.4150    3.9064    0.0366 H        1 ZINC000011616925    0.1000
42     H42     0.7733    3.9478   -0.6501 H        1 ZINC000011616925    0.0900
43     H43     2.7401    3.7151    2.4683 H        1 ZINC000011616925    0.1800
44     H44    -1.7334    5.5624    7.2440 H        1 ZINC000011616925    0.4200
45     H45    -3.2774    5.7472    6.6079 H        1 ZINC000011616925    0.4100
46     H46    -4.1603    5.0329    2.0997 H        1 ZINC000011616925    0.4100
47     H47    -2.9237    4.5765    1.0579 H        1 ZINC000011616925    0.4300
48     H48     0.6729    2.6740   -2.5043 H        1 ZINC000011616925    0.1200
49     H49     1.7527    2.0544   -4.6256 H        1 ZINC000011616925    0.1300
50     H50     5.4354   -0.5430   -4.0943 H        1 ZINC000011616925    0.3900
51     H51     7.2814   -1.6700   -5.1669 H        1 ZINC000011616925    0.0500
52     H52     7.6567   -1.2699   -6.8602 H        1 ZINC000011616925    0.0800
53     H53     7.8175    1.1300   -6.2575 H        1 ZINC000011616925    0.0500
54     H54     7.4422    0.7299   -4.5642 H        1 ZINC000011616925    0.0500
55     H55     4.7199   -0.1484   -2.4491 H        1 ZINC000011616925    0.1300
56     H56     3.6278    0.4872   -0.3389 H        1 ZINC000011616925    0.1200
@<TRIPOS>BOND
1     1     2     3
2     1     38    1
3     2     3     1
4     3     4     1
5     3     39    1
6     3     40    1
7     4     5     1
8     4     6     1
9     4     19    1
10    6     7     1
11    6     41    1
12    6     42    1
13    7     18    ar
14    7     8     ar
15    8     9     ar
16    8     43    1
17    9     10    ar
18    10    17    ar
19    10    11    ar
20    11    12    ar
21    12    13    1
22    12    14    ar
23    13    44    1
24    13    45    1
25    14    15    ar
26    15    16    1
27    15    17    ar
28    16    46    1
29    16    47    1
30    17    18    ar
31    19    37    ar
32    19    20    ar
33    20    21    ar
34    20    48    1
35    21    22    ar
36    21    49    1
37    22    23    1
38    22    36    ar
39    23    24    2
40    23    25    am
41    25    26    1
42    25    50    1
43    26    27    1
44    26    28    1
45    26    33    1
46    28    29    1
47    28    51    1
48    28    52    1
49    29    30    1
50    29    53    1
51    29    54    1
52    30    31    ar
53    30    32    ar
54    33    34    ar
55    33    35    ar
56    36    37    ar
57    36    55    1
58    37    56    1
@<TRIPOS>SUBSTRUCTURE
1   ZINC000011616925 1     RESIDUE    1   A     ZIN   1
