@<TRIPOS>MOLECULE
ZINC000000000373
25   25    0    0    0
SMALL
USER_CHARGES
NO_NAME
@<TRIPOS>ATOM
1 C1       -0.0187     1.5258     0.0104 C.3    1 <0>      -0.1800
2 C2        0.0021    -0.0041     0.0020 C.3    1 <0>       0.0300
3 H3        0.5123    -0.3556    -0.8948 H      1 <0>       0.1400
4 N4        0.7126    -0.4907     1.1921 N.4    1 <0>      -0.6400
5 H5        0.2403    -0.1653     2.0223 H      1 <0>       0.4300
6 H6        0.7262    -1.4996     1.1866 H      1 <0>       0.4300
7 H7        1.6592    -0.1415     1.1850 H      1 <0>       0.4400
8 C8       -1.4333    -0.5336     0.0129 C.3    1 <0>      -0.1000
9 C9       -1.4159    -2.0348    -0.1192 C.ar   1 <0>      -0.1400
10 C10      -1.4497    -2.6177    -1.3725 C.ar   1 <0>      -0.0900
11 C11      -1.4339    -3.9935    -1.4962 C.ar   1 <0>      -0.1400
12 C12      -1.3836    -4.7903    -0.3617 C.ar   1 <0>       0.1300
13 O13      -1.3674    -6.1440    -0.4808 O.3    1 <0>      -0.4900
14 C14      -1.3493    -4.2029     0.8947 C.ar   1 <0>      -0.1400
15 C15      -1.3604    -2.8266     1.0129 C.ar   1 <0>      -0.1200
16 H16       1.0039     1.9031     0.0027 H      1 <0>       0.0800
17 H17      -0.5459     1.8868    -0.8726 H      1 <0>       0.1100
18 H18      -0.5289     1.8773     0.9072 H      1 <0>       0.0800
19 H19      -1.9156    -0.2570     0.9504 H      1 <0>       0.1000
20 H20      -1.9862    -0.1019    -0.8214 H      1 <0>       0.1200
21 H21      -1.4889    -1.9970    -2.2554 H      1 <0>       0.1300
22 H22      -1.4610    -4.4485    -2.4754 H      1 <0>       0.1400
23 H23      -0.4800    -6.5226    -0.5452 H      1 <0>       0.4000
24 H24      -1.3104    -4.8211     1.7795 H      1 <0>       0.1400
25 H25      -1.3334    -2.3688     1.9907 H      1 <0>       0.1300
@<TRIPOS>BOND
1    1    2 1
2    1   16 1
3    1   17 1
4    1   18 1
5    2    3 1
6    2    4 1
7    2    8 1
8    4    5 1
9    4    6 1
10    4    7 1
11    8    9 1
12    8   19 1
13    8   20 1
14    9   15 ar
15    9   10 ar
16   10   11 ar
17   10   21 1
18   11   12 ar
19   11   22 1
20   12   13 1
21   12   14 ar
22   13   23 1
23   14   15 ar
24   14   24 1
25   15   25 1
