@<TRIPOS>MOLECULE
ZINC000001530636
35    35    1     0     0
SMALL
USER_CHARGES
@<TRIPOS>ATOM
1      N1      1.1351   -0.6437   -0.0357 N.2      1 ZINC000001530636   -0.8100
2      C2     -0.0002   -0.0046   -0.0056 C.2      1 ZINC000001530636    0.6400
3      N3     -0.0150    1.3703    0.0110 N.pl3    1 ZINC000001530636   -0.8800
4      N4     -1.1853   -0.7063    0.0095 N.pl3    1 ZINC000001530636   -0.6100
5      C5     -1.1709   -2.0919    0.1068 C.2      1 ZINC000001530636    0.2700
6      N6     -2.2173   -2.8530    0.0253 N.2      1 ZINC000001530636   -0.5200
7      C7     -2.0202   -4.1536    0.1397 C.2      1 ZINC000001530636    0.1000
8      C8     -3.1422   -5.1570    0.0652 C.3      1 ZINC000001530636   -0.0100
9      S9     -3.3766   -5.6751   -1.6574 S.3      1 ZINC000001530636   -0.2500
10     C10    -4.7443   -6.8614   -1.5442 C.3      1 ZINC000001530636   -0.0700
11     C11    -5.0690   -7.3999   -2.9390 C.3      1 ZINC000001530636   -0.0600
12     C12    -6.2052   -8.3854   -2.8449 C.2      1 ZINC000001530636    0.4200
13     N13    -6.7392   -8.6491   -1.6969 N.2      1 ZINC000001530636   -0.7200
14     N14    -6.6725   -9.0021   -3.9756 N.am     1 ZINC000001530636   -1.0800
15     S15    -7.9211  -10.0850   -3.8722 S.o2     1 ZINC000001530636    2.7900
16     N16    -9.2582   -9.2453   -3.3730 N.am     1 ZINC000001530636   -1.2500
17     O17    -8.1899  -10.5153   -5.1995 O.2      1 ZINC000001530636   -0.9600
18     O18    -7.5912  -10.9782   -2.8174 O.2      1 ZINC000001530636   -0.9600
19     C19    -0.7478   -4.5076    0.3266 C.2      1 ZINC000001530636   -0.3200
20     S20     0.2302   -3.0424    0.3441 S.3      1 ZINC000001530636    0.3000
21     H21     1.9697   -0.1495   -0.0463 H        1 ZINC000001530636    0.3600
22     H22     0.8179    1.8636    0.0737 H        1 ZINC000001530636    0.4200
23     H23    -0.8583    1.8469   -0.0400 H        1 ZINC000001530636    0.4000
24     H24    -2.0300   -0.2329   -0.0478 H        1 ZINC000001530636    0.4200
25     H25    -2.8940   -6.0255    0.6753 H        1 ZINC000001530636    0.1000
26     H26    -4.0610   -4.7029    0.4362 H        1 ZINC000001530636    0.1000
27     H27    -4.4560   -7.6872   -0.8938 H        1 ZINC000001530636    0.0900
28     H28    -5.6230   -6.3646   -1.1329 H        1 ZINC000001530636    0.0900
29     H29    -5.3572   -6.5741   -3.5893 H        1 ZINC000001530636    0.1100
30     H30    -4.1903   -7.8967   -3.3503 H        1 ZINC000001530636    0.1100
31     H31    -7.4705   -9.2834   -1.6364 H        1 ZINC000001530636    0.3400
32     H32    -6.2720   -8.8043   -4.8366 H        1 ZINC000001530636    0.4300
33     H33   -10.1426   -9.5339   -3.6476 H        1 ZINC000001530636    0.4300
34     H34    -9.1570   -8.4647   -2.8061 H        1 ZINC000001530636    0.4200
35     H35    -0.3807   -5.5166    0.4432 H        1 ZINC000001530636    0.1700
@<TRIPOS>BOND
1     1     2     2
2     1     21    1
3     2     3     1
4     2     4     1
5     3     22    1
6     3     23    1
7     4     5     1
8     4     24    1
9     5     20    1
10    5     6     2
11    6     7     1
12    7     8     1
13    7     19    2
14    8     9     1
15    8     25    1
16    8     26    1
17    9     10    1
18    10    11    1
19    10    27    1
20    10    28    1
21    11    12    1
22    11    29    1
23    11    30    1
24    12    13    2
25    12    14    1
26    13    31    1
27    14    15    am
28    14    32    1
29    15    16    am
30    15    17    2
31    15    18    2
32    16    33    1
33    16    34    1
34    19    20    1
35    19    35    1
@<TRIPOS>SUBSTRUCTURE
1   ZINC000001530636 1     RESIDUE    1   A     ZIN   1
