@<TRIPOS>MOLECULE
ZINC000000000711
24    24    1     0     0
SMALL
USER_CHARGES
@<TRIPOS>ATOM
1      C1     -0.0184    1.5028    0.0103 C.3      1 ZINC000000000711   -0.0800
2      C2      0.0021   -0.0041    0.0020 C.2      1 ZINC000000000711    0.2700
3      N3      0.0080   -0.7588   -1.0626 N.2      1 ZINC000000000711   -0.4800
4      C4      0.0278   -2.0475   -0.6911 C.2      1 ZINC000000000711    0.1000
5      C5      0.0345   -2.0930    0.6548 C.2      1 ZINC000000000711    0.0100
6      N6      0.0554   -3.3107    1.4964 N.pl3    1 ZINC000000000711    0.0700
7      O7      0.0681   -4.4113    0.9749 O.2      1 ZINC000000000711   -0.1500
8      O8      0.0599   -3.2119    2.7104 O.2      1 ZINC000000000711   -0.1400
9      N9      0.0232   -0.7970    1.0950 N.pl3    1 ZINC000000000711   -0.4300
10     C10     0.0251   -0.3530    2.4911 C.3      1 ZINC000000000711    0.0900
11     C11     1.4682   -0.1843    2.9707 C.3      1 ZINC000000000711    0.0900
12     H12     1.9976    0.4915    2.2990 H        1 ZINC000000000711    0.0600
13     C13     1.4706    0.3976    4.3857 C.3      1 ZINC000000000711   -0.1800
14     O14     2.1196   -1.4561    2.9775 O.3      1 ZINC000000000711   -0.5600
15     H15     1.0042    1.8801    0.0026 H        1 ZINC000000000711    0.1000
16     H16    -0.5455    1.8639   -0.8728 H        1 ZINC000000000711    0.1100
17     H17    -0.5286    1.8543    0.9071 H        1 ZINC000000000711    0.0800
18     H18     0.0365   -2.8993   -1.3550 H        1 ZINC000000000711    0.2000
19     H19    -0.4978    0.6001    2.5700 H        1 ZINC000000000711    0.1200
20     H20    -0.4787   -1.0960    3.1093 H        1 ZINC000000000711    0.1200
21     H21     0.9412   -0.2781    5.0573 H        1 ZINC000000000711    0.0700
22     H22     2.4987    0.5178    4.7273 H        1 ZINC000000000711    0.0700
23     H23     0.9737    1.3678    4.3804 H        1 ZINC000000000711    0.0700
24     H24     3.0403   -1.4249    3.2716 H        1 ZINC000000000711    0.3800
@<TRIPOS>BOND
1     1     2     1
2     1     15    1
3     1     16    1
4     1     17    1
5     2     9     1
6     2     3     2
7     3     4     1
8     4     5     2
9     4     18    1
10    5     6     1
11    5     9     1
12    6     7     2
13    6     8     2
14    9     10    1
15    10    11    1
16    10    19    1
17    10    20    1
18    11    12    1
19    11    13    1
20    11    14    1
21    13    21    1
22    13    22    1
23    13    23    1
24    14    24    1
@<TRIPOS>SUBSTRUCTURE
1   ZINC000000000711 1     RESIDUE    1   A     ZIN   1
