@<TRIPOS>MOLECULE
ZINC000003861599
61    65    1     0     0
SMALL
USER_CHARGES
@<TRIPOS>ATOM
1      C1     -0.1286    1.5685    0.9029 C.3      1 ZINC000003861599   -0.1800
2      C2     -0.0885    0.0631    0.8470 C.2      1 ZINC000003861599    0.3200
3      O3     -0.0179   -0.5804    1.8732 O.2      1 ZINC000003861599   -0.4500
4      S4     -0.1425   -0.7392   -0.6644 S.3      1 ZINC000003861599   -0.1200
5      C5     -0.0652   -2.4603   -0.1096 C.3      1 ZINC000003861599   -0.0600
6      H6     -0.8665   -2.6491    0.6049 H        1 ZINC000003861599    0.1100
7      C7      1.2868   -2.7224    0.5572 C.3      1 ZINC000003861599   -0.1000
8      C8      2.3819   -2.5670   -0.4822 C.2      1 ZINC000003861599   -0.0200
9      C9      3.4322   -1.8094   -0.1669 C.2      1 ZINC000003861599   -0.2300
10     C10     4.5274   -1.6371   -1.1273 C.2      1 ZINC000003861599    0.3900
11     O11     5.2905   -0.6960   -1.0637 O.2      1 ZINC000003861599   -0.4600
12     C12     4.6558   -2.6975   -2.2034 C.3      1 ZINC000003861599   -0.1700
13     C13     3.2741   -2.8831   -2.8290 C.3      1 ZINC000003861599   -0.1000
14     C14     2.2355   -3.2761   -1.7932 C.3      1 ZINC000003861599   -0.0300
15     C15     2.3670   -4.7787   -1.5368 C.3      1 ZINC000003861599   -0.1500
16     C16     0.8348   -3.0317   -2.3681 C.3      1 ZINC000003861599   -0.0700
17     H17     0.7316   -1.9744   -2.6121 H        1 ZINC000003861599    0.0800
18     C18     0.6672   -3.8540   -3.6426 C.3      1 ZINC000003861599   -0.1200
19     C19    -0.7593   -3.7473   -4.2045 C.3      1 ZINC000003861599   -0.1100
20     C20    -1.7059   -4.2079   -3.1136 C.3      1 ZINC000003861599   -0.0500
21     C21    -1.2946   -5.5987   -2.6266 C.3      1 ZINC000003861599   -0.1500
22     C22    -1.5866   -3.1913   -1.9449 C.3      1 ZINC000003861599   -0.0900
23     H23    -1.6967   -2.1718   -2.3145 H        1 ZINC000003861599    0.0900
24     C24    -2.7872   -3.5747   -1.0719 C.3      1 ZINC000003861599   -0.1200
25     C25    -3.9077   -3.8401   -2.1166 C.3      1 ZINC000003861599   -0.1300
26     C26    -3.1891   -4.1957   -3.4346 C.3      1 ZINC000003861599    0.1200
27     C27    -3.5206   -3.1494   -4.5120 C.3      1 ZINC000003861599   -0.1500
28     C28    -4.6970   -3.8324   -5.2514 C.3      1 ZINC000003861599   -0.1900
29     C29    -4.5009   -5.3065   -4.9672 C.2      1 ZINC000003861599    0.4800
30     O30    -5.0326   -6.2055   -5.5747 O.2      1 ZINC000003861599   -0.4600
31     O31    -3.6502   -5.4686   -3.9436 O.3      1 ZINC000003861599   -0.3300
32     C32    -0.2227   -3.3936   -1.3135 C.3      1 ZINC000003861599   -0.0600
33     H33    -0.1040   -4.4332   -1.0082 H        1 ZINC000003861599    0.1100
34     H34     0.8877    1.9607    0.8642 H        1 ZINC000003861599    0.1000
35     H35    -0.6973    1.9486    0.0543 H        1 ZINC000003861599    0.0900
36     H36    -0.6051    1.8851    1.8307 H        1 ZINC000003861599    0.1000
37     H37     1.4425   -2.0044    1.3623 H        1 ZINC000003861599    0.0900
38     H38     1.3057   -3.7354    0.9593 H        1 ZINC000003861599    0.1000
39     H39     3.4767   -1.3220    0.7958 H        1 ZINC000003861599    0.1300
40     H40     5.3656   -2.3703   -2.9632 H        1 ZINC000003861599    0.0900
41     H41     4.9913   -3.6355   -1.7612 H        1 ZINC000003861599    0.1000
42     H42     2.9695   -1.9490   -3.3010 H        1 ZINC000003861599    0.0700
43     H43     3.3301   -3.6621   -3.5894 H        1 ZINC000003861599    0.0800
44     H44     3.3281   -4.9841   -1.0654 H        1 ZINC000003861599    0.0600
45     H45     1.5622   -5.1069   -0.8791 H        1 ZINC000003861599    0.0600
46     H46     2.3044   -5.3157   -2.4834 H        1 ZINC000003861599    0.0700
47     H47     1.3724   -3.4952   -4.3924 H        1 ZINC000003861599    0.0700
48     H48     0.8854   -4.8990   -3.4227 H        1 ZINC000003861599    0.0800
49     H49    -0.9764   -2.7132   -4.4723 H        1 ZINC000003861599    0.0700
50     H50    -0.8622   -4.3880   -5.0803 H        1 ZINC000003861599    0.0700
51     H51    -0.2538   -5.5774   -2.3035 H        1 ZINC000003861599    0.0700
52     H52    -1.9287   -5.8932   -1.7903 H        1 ZINC000003861599    0.0600
53     H53    -1.4082   -6.3165   -3.4390 H        1 ZINC000003861599    0.0600
54     H54    -2.5741   -4.4764   -0.4977 H        1 ZINC000003861599    0.0800
55     H55    -3.0624   -2.7521   -0.4119 H        1 ZINC000003861599    0.0700
56     H56    -4.5322   -4.6730   -1.7935 H        1 ZINC000003861599    0.0800
57     H57    -4.5152   -2.9450   -2.2505 H        1 ZINC000003861599    0.0800
58     H58    -3.8358   -2.2089   -4.0601 H        1 ZINC000003861599    0.1000
59     H59    -2.6742   -2.9955   -5.1814 H        1 ZINC000003861599    0.1000
60     H60    -5.6509   -3.4895   -4.8508 H        1 ZINC000003861599    0.1100
61     H61    -4.6393   -3.6387   -6.3225 H        1 ZINC000003861599    0.1100
@<TRIPOS>BOND
1     1     2     1
2     1     34    1
3     1     35    1
4     1     36    1
5     2     3     2
6     2     4     1
7     4     5     1
8     5     6     1
9     5     32    1
10    5     7     1
11    7     8     1
12    7     37    1
13    7     38    1
14    8     14    1
15    8     9     2
16    9     10    1
17    9     39    1
18    10    11    2
19    10    12    1
20    12    13    1
21    12    40    1
22    12    41    1
23    13    14    1
24    13    42    1
25    13    43    1
26    14    15    1
27    14    16    1
28    15    44    1
29    15    45    1
30    15    46    1
31    16    17    1
32    16    32    1
33    16    18    1
34    18    19    1
35    18    47    1
36    18    48    1
37    19    20    1
38    19    49    1
39    19    50    1
40    20    26    1
41    20    21    1
42    20    22    1
43    21    51    1
44    21    52    1
45    21    53    1
46    22    23    1
47    22    24    1
48    22    32    1
49    24    25    1
50    24    54    1
51    24    55    1
52    25    26    1
53    25    56    1
54    25    57    1
55    26    31    1
56    26    27    1
57    27    28    1
58    27    58    1
59    27    59    1
60    28    29    1
61    28    60    1
62    28    61    1
63    29    30    2
64    29    31    1
65    32    33    1
@<TRIPOS>SUBSTRUCTURE
1   ZINC000003861599 1     RESIDUE    1   A     ZIN   1
