@<TRIPOS>MOLECULE
ZINC000001895505
70   74    0    0    0
SMALL
USER_CHARGES
NO_NAME
@<TRIPOS>ATOM
1 C1       -0.5055    -0.7747     3.0183 C.3    1 <0>      -0.0800
2 C2       -0.4711    -1.0684     1.5406 C.2    1 <0>      -0.1400
3 C3       -0.3323    -2.2878     0.9631 C.2    1 <0>       0.1100
4 C4       -0.1871    -3.5654     1.6933 C.ar   1 <0>      -0.0400
5 C5       -1.0657    -4.6200     1.4397 C.ar   1 <0>      -0.0900
6 C6       -0.9268    -5.8097     2.1221 C.ar   1 <0>      -0.1400
7 C7        0.0855    -5.9597     3.0608 C.ar   1 <0>       0.1100
8 O8        0.2191    -7.1338     3.7313 O.3    1 <0>      -0.5000
9 C9        0.9618    -4.9131     3.3155 C.ar   1 <0>      -0.1400
10 C10       0.8324    -3.7219     2.6337 C.ar   1 <0>      -0.0800
11 N11      -0.3473    -2.1539    -0.4057 N.pl3  1 <0>      -0.4700
12 C12      -0.2224    -3.2569    -1.3618 C.3    1 <0>       0.1500
13 C13       1.2360    -3.5422    -1.6119 C.ar   1 <0>      -0.1300
14 C14       1.9323    -2.8047    -2.5516 C.ar   1 <0>      -0.0500
15 C15       3.2693    -3.0643    -2.7827 C.ar   1 <0>      -0.1400
16 C16       3.9134    -4.0657    -2.0707 C.ar   1 <0>       0.1200
17 O17       5.2288    -4.3227    -2.2960 O.3    1 <0>      -0.3300
18 C18       5.8266    -5.3679    -1.5264 C.3    1 <0>       0.0300
19 C19       7.2994    -5.5095    -1.9159 C.3    1 <0>       0.0000
20 N20       8.0129    -4.2665    -1.5935 N.4    1 <0>      -0.3900
21 H21       7.5402    -3.4983    -2.0457 H      1 <0>       0.4300
22 C22       7.9599    -4.0579    -0.1307 C.3    1 <0>      -0.0100
23 C23       8.9536    -4.9016     0.6209 C.3    1 <0>      -0.1400
24 C24      10.2310    -4.0626     0.8430 C.3    1 <0>      -0.1300
25 C25      11.0605    -3.9970    -0.3535 C.3    1 <0>      -0.1300
26 C26      10.3214    -3.3393    -1.5393 C.3    1 <0>      -0.1400
27 C27       9.3869    -4.3578    -2.1319 C.3    1 <0>       0.0000
28 C28       3.2127    -4.8040    -1.1281 C.ar   1 <0>      -0.2000
29 C29       1.8770    -4.5373    -0.8973 C.ar   1 <0>      -0.0500
30 C30      -0.4984    -0.8244    -0.7430 C.ar   1 <0>       0.1000
31 C31      -0.5739    -0.1549    -1.9592 C.ar   1 <0>      -0.1200
32 C32      -0.7287     1.2138    -1.9844 C.ar   1 <0>      -0.1200
33 C33      -0.8115     1.9404    -0.7996 C.ar   1 <0>       0.0800
34 O34      -0.9641     3.2910    -0.8428 O.3    1 <0>      -0.5000
35 C35      -0.7397     1.2954     0.4189 C.ar   1 <0>      -0.0900
36 C36      -0.5873    -0.0938     0.4570 C.ar   1 <0>      -0.0900
37 H37      -1.5343    -0.8248     3.3748 H      1 <0>       0.0700
38 H38       0.0992    -1.5101     3.5491 H      1 <0>       0.0600
39 H39      -0.1062     0.2231     3.1998 H      1 <0>       0.0700
40 H40      -1.8535    -4.5040     0.7101 H      1 <0>       0.1300
41 H41      -1.6064    -6.6260     1.9267 H      1 <0>       0.1300
42 H42       0.7988    -7.7726     3.2943 H      1 <0>       0.3900
43 H43       1.7481    -5.0337     4.0460 H      1 <0>       0.1300
44 H44       1.5143    -2.9084     2.8324 H      1 <0>       0.1300
45 H45      -0.7021    -4.1469    -0.9544 H      1 <0>       0.1000
46 H46      -0.7048    -2.9812    -2.2996 H      1 <0>       0.1000
47 H47       1.4304    -2.0252    -3.1055 H      1 <0>       0.1300
48 H48       3.8125    -2.4884    -3.5173 H      1 <0>       0.1400
49 H49       5.7528    -5.1262    -0.4661 H      1 <0>       0.0900
50 H50       5.3072    -6.3059    -1.7223 H      1 <0>       0.1100
51 H51       7.7435    -6.3372    -1.3630 H      1 <0>       0.1500
52 H52       7.3752    -5.7049    -2.9856 H      1 <0>       0.1400
53 H53       8.1603    -3.0076     0.0813 H      1 <0>       0.1300
54 H54       6.9572    -4.2992     0.2220 H      1 <0>       0.1300
55 H55       8.5339    -5.1939     1.5835 H      1 <0>       0.1100
56 H56       9.1948    -5.7912     0.0391 H      1 <0>       0.0800
57 H57       9.9445    -3.0511     1.1309 H      1 <0>       0.0700
58 H58      10.8108    -4.5079     1.6515 H      1 <0>       0.0900
59 H59      11.9574    -3.4188    -0.1310 H      1 <0>       0.0900
60 H60      11.3542    -5.0078    -0.6363 H      1 <0>       0.0700
61 H61       9.7525    -2.4791    -1.1863 H      1 <0>       0.0900
62 H62      11.0434    -3.0198    -2.2908 H      1 <0>       0.1100
63 H63       9.7798    -5.3541    -1.9291 H      1 <0>       0.1300
64 H64       9.3479    -4.2117    -3.2114 H      1 <0>       0.1300
65 H65       3.7119    -5.5843    -0.5728 H      1 <0>       0.1300
66 H66       1.3312    -5.1115    -0.1633 H      1 <0>       0.1300
67 H67      -0.5109    -0.7081    -2.8846 H      1 <0>       0.1200
68 H68      -0.7859     1.7281    -2.9323 H      1 <0>       0.1300
69 H69      -1.8861     3.5824    -0.8558 H      1 <0>       0.3900
70 H70      -0.8040     1.8602     1.3371 H      1 <0>       0.1300
@<TRIPOS>BOND
1    1    2 1
2    1   37 1
3    1   38 1
4    1   39 1
5    2   36 1
6    2    3 2
7    3    4 1
8    3   11 1
9    4   10 ar
10    4    5 ar
11    5    6 ar
12    5   40 1
13    6    7 ar
14    6   41 1
15    7    8 1
16    7    9 ar
17    8   42 1
18    9   10 ar
19    9   43 1
20   10   44 1
21   11   12 1
22   11   30 1
23   12   13 1
24   12   45 1
25   12   46 1
26   13   29 ar
27   13   14 ar
28   14   15 ar
29   14   47 1
30   15   16 ar
31   15   48 1
32   16   17 1
33   16   28 ar
34   17   18 1
35   18   19 1
36   18   49 1
37   18   50 1
38   19   20 1
39   19   51 1
40   19   52 1
41   20   21 1
42   20   27 1
43   20   22 1
44   22   23 1
45   22   53 1
46   22   54 1
47   23   24 1
48   23   55 1
49   23   56 1
50   24   25 1
51   24   57 1
52   24   58 1
53   25   26 1
54   25   59 1
55   25   60 1
56   26   27 1
57   26   61 1
58   26   62 1
59   27   63 1
60   27   64 1
61   28   29 ar
62   28   65 1
63   29   66 1
64   30   36 ar
65   30   31 ar
66   31   32 ar
67   31   67 1
68   32   33 ar
69   32   68 1
70   33   34 1
71   33   35 ar
72   34   69 1
73   35   36 ar
74   35   70 1
