@<TRIPOS>MOLECULE
ZINC000000896663
22   23    0    0    0
SMALL
USER_CHARGES
NO_NAME
@<TRIPOS>ATOM
1 N1       -0.0116     1.0048     0.0076 N.4    1 <0>      -0.6100
2 H2        0.0021    -0.0041     0.0020 H      1 <0>       0.4300
3 H3        0.9350     1.3541     0.0004 H      1 <0>       0.4400
4 H4       -0.4996     1.3391    -0.8099 H      1 <0>       0.4400
5 C5       -0.6992     1.4786     1.2162 C.3    1 <0>      -0.0800
6 H6       -1.1549     2.4659     1.1413 H      1 <0>       0.1800
7 C7       -1.4122     0.4349     2.0783 C.3    1 <0>      -0.1500
8 C8       -0.1102     1.0731     2.5688 C.3    1 <0>      -0.0700
9 H9        0.7872     0.4546     2.5620 H      1 <0>       0.1400
10 C10      -0.2049     2.0687     3.6962 C.ar   1 <0>      -0.0900
11 C11      -1.4425     2.5043     4.1315 C.ar   1 <0>      -0.1100
12 C12      -1.5294     3.4175     5.1656 C.ar   1 <0>      -0.1100
13 C13      -0.3787     3.8948     5.7647 C.ar   1 <0>      -0.1000
14 C14       0.8589     3.4585     5.3300 C.ar   1 <0>      -0.1100
15 C15       0.9456     2.5420     4.2987 C.ar   1 <0>      -0.1000
16 H16      -2.3369     0.7357     2.5709 H      1 <0>       0.1400
17 H17      -1.3711    -0.6033     1.7486 H      1 <0>       0.1300
18 H18      -2.3416     2.1314     3.6634 H      1 <0>       0.1300
19 H19      -2.4963     3.7584     5.5052 H      1 <0>       0.1300
20 H20      -0.4465     4.6088     6.5721 H      1 <0>       0.1300
21 H21       1.7580     3.8316     5.7978 H      1 <0>       0.1300
22 H22       1.9125     2.2011     3.9591 H      1 <0>       0.1300
@<TRIPOS>BOND
1    1    2 1
2    1    3 1
3    1    4 1
4    1    5 1
5    5    6 1
6    5    8 1
7    5    7 1
8    7    8 1
9    7   16 1
10    7   17 1
11    8    9 1
12    8   10 1
13   10   15 ar
14   10   11 ar
15   11   12 ar
16   11   18 1
17   12   13 ar
18   12   19 1
19   13   14 ar
20   13   20 1
21   14   15 ar
22   14   21 1
23   15   22 1
