@<TRIPOS>MOLECULE
ZINC000001530706
51    52    1     0     0
SMALL
USER_CHARGES
@<TRIPOS>ATOM
1      C1      2.3094    1.0762    0.7146 C.3      1 ZINC000001530706   -0.1500
2      C2      1.6277   -0.2935    0.7061 C.3      1 ZINC000001530706   -0.1700
3      C3      1.7505   -0.9072   -0.6649 C.2      1 ZINC000001530706    0.3600
4      O4      2.3240   -0.3105   -1.5443 O.2      1 ZINC000001530706   -0.4100
5      C5      1.1575   -2.2653   -0.9383 C.3      1 ZINC000001530706   -0.0100
6      C6      1.8012   -3.2988   -0.0118 C.3      1 ZINC000001530706   -0.1300
7      C7      1.2397   -4.6866   -0.3274 C.3      1 ZINC000001530706    0.0100
8      H8      0.1589   -4.6213   -0.4528 H        1 ZINC000001530706    0.1500
9      C9      1.8720   -5.2112   -1.6181 C.3      1 ZINC000001530706   -0.2100
10     N10     1.5499   -5.6033    0.7777 N.4      1 ZINC000001530706   -0.3800
11     H11     2.5443   -5.5996    0.9487 H        1 ZINC000001530706    0.4300
12     C12     0.8431   -5.1667    1.9892 C.3      1 ZINC000001530706   -0.0600
13     C13     1.1192   -6.9621    0.4224 C.3      1 ZINC000001530706   -0.0500
14     C14    -0.3282   -2.2241   -0.6896 C.ar     1 ZINC000001530706   -0.0800
15     C15    -0.8756   -2.9532    0.3495 C.ar     1 ZINC000001530706   -0.1500
16     C16    -2.2384   -2.9154    0.5777 C.ar     1 ZINC000001530706   -0.1100
17     C17    -3.0539   -2.1481   -0.2330 C.ar     1 ZINC000001530706   -0.1100
18     C18    -2.5065   -1.4184   -1.2716 C.ar     1 ZINC000001530706   -0.1000
19     C19    -1.1431   -1.4528   -1.4971 C.ar     1 ZINC000001530706   -0.1000
20     C20     1.4163   -2.6468   -2.3731 C.ar     1 ZINC000001530706   -0.0900
21     C21     0.3661   -3.0286   -3.1869 C.ar     1 ZINC000001530706   -0.1200
22     C22     0.6035   -3.3785   -4.5030 C.ar     1 ZINC000001530706   -0.1200
23     C23     1.8909   -3.3462   -5.0054 C.ar     1 ZINC000001530706   -0.1100
24     C24     2.9409   -2.9636   -4.1918 C.ar     1 ZINC000001530706   -0.1200
25     C25     2.7030   -2.6095   -2.8769 C.ar     1 ZINC000001530706   -0.0900
26     H26     3.3633    0.9591    0.4620 H        1 ZINC000001530706    0.0600
27     H27     1.8300    1.7252   -0.0182 H        1 ZINC000001530706    0.0600
28     H28     2.2207    1.5200    1.7062 H        1 ZINC000001530706    0.0700
29     H29     2.1071   -0.9426    1.4389 H        1 ZINC000001530706    0.1000
30     H30     0.5739   -0.1765    0.9587 H        1 ZINC000001530706    0.1000
31     H31     2.8806   -3.3005   -0.1636 H        1 ZINC000001530706    0.1000
32     H32     1.5805   -3.0447    1.0250 H        1 ZINC000001530706    0.1000
33     H33     2.9549   -5.0992   -1.5637 H        1 ZINC000001530706    0.0800
34     H34     1.6215   -6.2646   -1.7433 H        1 ZINC000001530706    0.0800
35     H35     1.4901   -4.6435   -2.4666 H        1 ZINC000001530706    0.1300
36     H36    -0.2325   -5.2347    1.8268 H        1 ZINC000001530706    0.1300
37     H37     1.1256   -5.8066    2.8252 H        1 ZINC000001530706    0.1300
38     H38     1.1120   -4.1347    2.2147 H        1 ZINC000001530706    0.1300
39     H39     1.3494   -7.6423    1.2424 H        1 ZINC000001530706    0.1300
40     H40     0.0450   -6.9661    0.2377 H        1 ZINC000001530706    0.1200
41     H41     1.6436   -7.2860   -0.4765 H        1 ZINC000001530706    0.1300
42     H42    -0.2384   -3.5526    0.9829 H        1 ZINC000001530706    0.1200
43     H43    -2.6661   -3.4855    1.3891 H        1 ZINC000001530706    0.1300
44     H44    -4.1188   -2.1191   -0.0552 H        1 ZINC000001530706    0.1300
45     H45    -3.1436   -0.8192   -1.9052 H        1 ZINC000001530706    0.1300
46     H46    -0.7154   -0.8826   -2.3085 H        1 ZINC000001530706    0.1300
47     H47    -0.6397   -3.0538   -2.7944 H        1 ZINC000001530706    0.1300
48     H48    -0.2169   -3.6774   -5.1387 H        1 ZINC000001530706    0.1300
49     H49     2.0764   -3.6203   -6.0335 H        1 ZINC000001530706    0.1300
50     H50     3.9468   -2.9386   -4.5842 H        1 ZINC000001530706    0.1300
51     H51     3.5234   -2.3106   -2.2413 H        1 ZINC000001530706    0.1200
@<TRIPOS>BOND
1     1     2     1
2     1     26    1
3     1     27    1
4     1     28    1
5     2     3     1
6     2     29    1
7     2     30    1
8     3     4     2
9     3     5     1
10    5     6     1
11    5     14    1
12    5     20    1
13    6     7     1
14    6     31    1
15    6     32    1
16    7     8     1
17    7     9     1
18    7     10    1
19    9     33    1
20    9     34    1
21    9     35    1
22    10    11    1
23    10    12    1
24    10    13    1
25    12    36    1
26    12    37    1
27    12    38    1
28    13    39    1
29    13    40    1
30    13    41    1
31    14    19    ar
32    14    15    ar
33    15    16    ar
34    15    42    1
35    16    17    ar
36    16    43    1
37    17    18    ar
38    17    44    1
39    18    19    ar
40    18    45    1
41    19    46    1
42    20    25    ar
43    20    21    ar
44    21    22    ar
45    21    47    1
46    22    23    ar
47    22    48    1
48    23    24    ar
49    23    49    1
50    24    25    ar
51    24    50    1
52    25    51    1
@<TRIPOS>SUBSTRUCTURE
1   ZINC000001530706 1     RESIDUE    1   A     ZIN   1
