@<TRIPOS>MOLECULE
ZINC000003871541
23    25    1     0     0
SMALL
USER_CHARGES
@<TRIPOS>ATOM
1      O1      0.0021   -0.0041    0.0020 O.2      1 ZINC000003871541   -0.4600
2      C2     -0.0144    1.2113    0.0087 C.2      1 ZINC000003871541    0.5100
3      C3     -1.2407    2.1084    0.0319 C.3      1 ZINC000003871541    0.0200
4      N4     -0.6661    3.4493    0.0191 N.pl3    1 ZINC000003871541   -0.6300
5      C5     -1.3143    4.7611    0.0074 C.3      1 ZINC000003871541    0.1800
6      C6     -0.3925    5.7302    0.7170 C.ar     1 ZINC000003871541   -0.1300
7      C7     -0.9140    6.8142    1.3934 C.ar     1 ZINC000003871541    0.0100
8      Cl8    -2.6312    7.0646    1.4412 Cl       1 ZINC000003871541   -0.0300
9      C9     -0.0652    7.7024    2.0348 C.ar     1 ZINC000003871541   -0.0500
10     Cl10   -0.7216    9.0649    2.8870 Cl       1 ZINC000003871541   -0.0300
11     C11     1.3037    7.5059    1.9981 C.ar     1 ZINC000003871541   -0.0600
12     C12     1.8308    6.4206    1.3236 C.ar     1 ZINC000003871541   -0.1200
13     C13     0.9838    5.5281    0.6857 C.ar     1 ZINC000003871541    0.1900
14     N14     1.5110    4.4059    0.0166 N.pl3    1 ZINC000003871541   -0.6400
15     C15     0.6995    3.2911    0.0096 C.2      1 ZINC000003871541    0.6600
16     N16     1.0398    2.0273    0.0030 N.2      1 ZINC000003871541   -0.6300
17     H17    -1.8555    1.9439   -0.8531 H        1 ZINC000003871541    0.1200
18     H18    -1.8201    1.9458    0.9407 H        1 ZINC000003871541    0.1200
19     H19    -1.4730    5.0865   -1.0208 H        1 ZINC000003871541    0.1000
20     H20    -2.2688    4.7071    0.5310 H        1 ZINC000003871541    0.1100
21     H21     1.9618    8.2020    2.4970 H        1 ZINC000003871541    0.1600
22     H22     2.8996    6.2685    1.2938 H        1 ZINC000003871541    0.1500
23     H23     2.3826    4.4169   -0.4089 H        1 ZINC000003871541    0.4500
@<TRIPOS>BOND
1     1     2     2
2     2     16    1
3     2     3     1
4     3     4     1
5     3     17    1
6     3     18    1
7     4     15    1
8     4     5     1
9     5     6     1
10    5     19    1
11    5     20    1
12    6     13    ar
13    6     7     ar
14    7     8     1
15    7     9     ar
16    9     10    1
17    9     11    ar
18    11    12    ar
19    11    21    1
20    12    13    ar
21    12    22    1
22    13    14    1
23    14    15    1
24    14    23    1
25    15    16    2
@<TRIPOS>SUBSTRUCTURE
1   ZINC000003871541 1     RESIDUE    1   A     ZIN   1
