@<TRIPOS>MOLECULE
ZINC000022010379
32    33    1     0     0
SMALL
USER_CHARGES
@<TRIPOS>ATOM
1      C1     -0.0187    1.5258    0.0104 C.3      1 ZINC000022010379   -0.1800
2      C2      0.0021   -0.0041    0.0020 C.3      1 ZINC000022010379    0.0000
3      H3     -1.0204   -0.3816    0.0098 H        1 ZINC000022010379    0.1500
4      C4      0.7193   -0.4981   -1.2568 C.3      1 ZINC000022010379    0.1300
5      H5      0.6992   -1.5876   -1.2833 H        1 ZINC000022010379    0.0900
6      C6      0.0258    0.0480   -2.4782 C.ar     1 ZINC000022010379   -0.1100
7      C7      0.3509    1.3046   -2.9538 C.ar     1 ZINC000022010379   -0.0900
8      C8     -0.2852    1.8055   -4.0742 C.ar     1 ZINC000022010379   -0.1200
9      C9     -1.2461    1.0496   -4.7193 C.ar     1 ZINC000022010379   -0.1000
10     C10    -1.5706   -0.2074   -4.2443 C.ar     1 ZINC000022010379   -0.1200
11     C11    -0.9314   -0.7100   -3.1264 C.ar     1 ZINC000022010379   -0.1000
12     O12     2.0761   -0.0459   -1.2346 O.3      1 ZINC000022010379   -0.3500
13     C13     2.8053   -0.4753   -0.0814 C.3      1 ZINC000022010379    0.0400
14     C14     2.0919    0.0188    1.1796 C.3      1 ZINC000022010379   -0.0500
15     N15     0.7135   -0.4912    1.1919 N.4      1 ZINC000022010379   -0.3800
16     H16     0.7279   -1.5001    1.1857 H        1 ZINC000022010379    0.4200
17     C17     0.0271   -0.0185    2.4016 C.3      1 ZINC000022010379   -0.0500
18     H18     1.0039    1.9031    0.0027 H        1 ZINC000022010379    0.0900
19     H19    -0.5459    1.8868   -0.8726 H        1 ZINC000022010379    0.1100
20     H20    -0.5289    1.8773    0.9072 H        1 ZINC000022010379    0.0800
21     H21     1.1016    1.8951   -2.4497 H        1 ZINC000022010379    0.1300
22     H22    -0.0318    2.7875   -4.4453 H        1 ZINC000022010379    0.1300
23     H23    -1.7437    1.4412   -5.5942 H        1 ZINC000022010379    0.1300
24     H24    -2.3216   -0.7978   -4.7481 H        1 ZINC000022010379    0.1300
25     H25    -1.1848   -1.6921   -2.7553 H        1 ZINC000022010379    0.1300
26     H26     2.8565   -1.5640   -0.0677 H        1 ZINC000022010379    0.0800
27     H27     3.8138   -0.0632   -0.1142 H        1 ZINC000022010379    0.1400
28     H28     2.6209   -0.3421    2.0616 H        1 ZINC000022010379    0.1400
29     H29     2.0763    1.1087    1.1851 H        1 ZINC000022010379    0.1400
30     H30     0.0113    1.0714    2.4079 H        1 ZINC000022010379    0.1300
31     H31    -0.9951   -0.3968    2.4105 H        1 ZINC000022010379    0.1300
32     H32     0.5558   -0.3794    3.2838 H        1 ZINC000022010379    0.1300
@<TRIPOS>BOND
1     1     2     1
2     1     18    1
3     1     19    1
4     1     20    1
5     2     3     1
6     2     15    1
7     2     4     1
8     4     5     1
9     4     6     1
10    4     12    1
11    6     11    ar
12    6     7     ar
13    7     8     ar
14    7     21    1
15    8     9     ar
16    8     22    1
17    9     10    ar
18    9     23    1
19    10    11    ar
20    10    24    1
21    11    25    1
22    12    13    1
23    13    14    1
24    13    26    1
25    13    27    1
26    14    15    1
27    14    28    1
28    14    29    1
29    15    16    1
30    15    17    1
31    17    30    1
32    17    31    1
33    17    32    1
@<TRIPOS>SUBSTRUCTURE
1   ZINC000022010379 1     RESIDUE    1   A     ZIN   1
