@<TRIPOS>MOLECULE
ZINC000013912394
66    67    1     0     0
SMALL
USER_CHARGES
@<TRIPOS>ATOM
1      C1     -0.2740    1.8160   -0.6309 C.3      1 ZINC000013912394   -0.1500
2      C2     -0.1515    0.2910   -0.6482 C.3      1 ZINC000013912394    0.0800
3      C3      0.7946   -0.1573    0.4675 C.3      1 ZINC000013912394   -0.1700
4      O4     -1.4604   -0.3021   -0.4403 O.3      1 ZINC000013912394   -0.3500
5      C5     -1.6851   -1.4973   -1.0085 C.2      1 ZINC000013912394    0.4600
6      O6     -0.8169   -2.0302   -1.6582 O.2      1 ZINC000013912394   -0.5100
7      C7     -3.0204   -2.1744   -0.8362 C.3      1 ZINC000013912394   -0.1100
8      C8     -3.0132   -3.5124   -1.5783 C.3      1 ZINC000013912394   -0.1000
9      C9     -4.3688   -4.1999   -1.4034 C.3      1 ZINC000013912394   -0.1000
10     C10    -4.3617   -5.5178   -2.1342 C.2      1 ZINC000013912394   -0.1700
11     C11    -4.6950   -6.6174   -1.5052 C.2      1 ZINC000013912394   -0.1300
12     C12    -5.2507   -6.5463   -0.1062 C.3      1 ZINC000013912394   -0.0800
13     C13    -6.5623   -7.3312   -0.0378 C.3      1 ZINC000013912394   -0.0700
14     H14    -7.2514   -6.9734   -0.8028 H        1 ZINC000013912394    0.0900
15     C15    -7.1977   -7.1777    1.3595 C.3      1 ZINC000013912394   -0.0500
16     H16    -6.4359   -6.9356    2.1005 H        1 ZINC000013912394    0.1000
17     C17    -8.2677   -6.1167    1.3387 C.2      1 ZINC000013912394   -0.0800
18     C18    -8.1613   -5.0641    2.1112 C.2      1 ZINC000013912394   -0.2200
19     C19    -9.2313   -4.0030    2.0904 C.3      1 ZINC000013912394    0.3400
20     F20   -10.2267   -4.3623    1.1753 F        1 ZINC000013912394   -0.1900
21     F21    -9.7925   -3.8816    3.3661 F        1 ZINC000013912394   -0.1800
22     C22    -8.6152   -2.6656    1.6749 C.3      1 ZINC000013912394    0.0300
23     O23    -8.0420   -2.7896    0.3718 O.3      1 ZINC000013912394   -0.3000
24     C24    -7.4491   -1.6833   -0.1492 C.ar     1 ZINC000013912394    0.1300
25     C25    -7.4146   -0.5043    0.5811 C.ar     1 ZINC000013912394   -0.2100
26     C26    -6.8109    0.6188    0.0494 C.ar     1 ZINC000013912394   -0.0800
27     C27    -6.2417    0.5686   -1.2097 C.ar     1 ZINC000013912394   -0.1500
28     C28    -6.2752   -0.6051   -1.9397 C.ar     1 ZINC000013912394   -0.0800
29     C29    -6.8723   -1.7327   -1.4100 C.ar     1 ZINC000013912394   -0.1500
30     C30    -7.8148   -8.5682    1.6509 C.3      1 ZINC000013912394    0.1100
31     H31    -8.7756   -8.6775    1.1480 H        1 ZINC000013912394    0.0700
32     O32    -7.9552   -8.7751    3.0578 O.3      1 ZINC000013912394   -0.5600
33     C33    -6.7677   -9.5393    1.0510 C.3      1 ZINC000013912394   -0.1900
34     C34    -6.2890   -8.8325   -0.2352 C.3      1 ZINC000013912394    0.1100
35     H35    -6.8460   -9.2046   -1.0951 H        1 ZINC000013912394    0.0600
36     O36    -4.8903   -9.0556   -0.4247 O.3      1 ZINC000013912394   -0.5500
37     H37     0.7086    2.2612   -0.7870 H        1 ZINC000013912394    0.0800
38     H38    -0.9481    2.1354   -1.4258 H        1 ZINC000013912394    0.0600
39     H39    -0.6699    2.1378    0.3323 H        1 ZINC000013912394    0.0700
40     H40     0.2443   -0.0308   -1.6115 H        1 ZINC000013912394    0.0800
41     H41     0.3988    0.1645    1.4307 H        1 ZINC000013912394    0.0700
42     H42     0.8819   -1.2437    0.4551 H        1 ZINC000013912394    0.0600
43     H43     1.7772    0.2879    0.3114 H        1 ZINC000013912394    0.0800
44     H44    -3.2057   -2.3478    0.2238 H        1 ZINC000013912394    0.1000
45     H45    -3.8059   -1.5376   -1.2430 H        1 ZINC000013912394    0.1100
46     H46    -2.8278   -3.3390   -2.6383 H        1 ZINC000013912394    0.0700
47     H47    -2.2276   -4.1493   -1.1715 H        1 ZINC000013912394    0.0700
48     H48    -4.5541   -4.3733   -0.3433 H        1 ZINC000013912394    0.0800
49     H49    -5.1543   -3.5631   -1.8101 H        1 ZINC000013912394    0.0700
50     H50    -4.0818   -5.5557   -3.1767 H        1 ZINC000013912394    0.1100
51     H51    -4.5716   -7.5750   -1.9891 H        1 ZINC000013912394    0.1200
52     H52    -4.5329   -6.9767    0.5922 H        1 ZINC000013912394    0.0800
53     H53    -5.4359   -5.5054    0.1587 H        1 ZINC000013912394    0.0700
54     H54    -9.1221   -6.2241    0.6869 H        1 ZINC000013912394    0.1200
55     H55    -7.3069   -4.9567    2.7630 H        1 ZINC000013912394    0.1400
56     H56    -9.3891   -1.8981    1.6598 H        1 ZINC000013912394    0.0900
57     H57    -7.8397   -2.3856    2.3878 H        1 ZINC000013912394    0.1000
58     H58    -7.8597   -0.4644    1.5643 H        1 ZINC000013912394    0.1300
59     H59    -6.7838    1.5369    0.6176 H        1 ZINC000013912394    0.1300
60     H60    -5.7705    1.4477   -1.6237 H        1 ZINC000013912394    0.1200
61     H61    -5.8302   -0.6417   -2.9231 H        1 ZINC000013912394    0.1300
62     H62    -6.8981   -2.6492   -1.9806 H        1 ZINC000013912394    0.1300
63     H63    -8.3373   -9.6317    3.2932 H        1 ZINC000013912394    0.3800
64     H64    -5.9365   -9.6785    1.7422 H        1 ZINC000013912394    0.0900
65     H65    -7.2294  -10.4969    0.8104 H        1 ZINC000013912394    0.0700
66     H66    -4.6516   -9.9864   -0.5330 H        1 ZINC000013912394    0.3800
@<TRIPOS>BOND
1     1     2     1
2     1     37    1
3     1     38    1
4     1     39    1
5     2     3     1
6     2     4     1
7     2     40    1
8     3     41    1
9     3     42    1
10    3     43    1
11    4     5     1
12    5     6     2
13    5     7     1
14    7     8     1
15    7     44    1
16    7     45    1
17    8     9     1
18    8     46    1
19    8     47    1
20    9     10    1
21    9     48    1
22    9     49    1
23    10    11    2
24    10    50    1
25    11    12    1
26    11    51    1
27    12    13    1
28    12    52    1
29    12    53    1
30    13    14    1
31    13    34    1
32    13    15    1
33    15    16    1
34    15    17    1
35    15    30    1
36    17    18    2
37    17    54    1
38    18    19    1
39    18    55    1
40    19    20    1
41    19    21    1
42    19    22    1
43    22    23    1
44    22    56    1
45    22    57    1
46    23    24    1
47    24    29    ar
48    24    25    ar
49    25    26    ar
50    25    58    1
51    26    27    ar
52    26    59    1
53    27    28    ar
54    27    60    1
55    28    29    ar
56    28    61    1
57    29    62    1
58    30    31    1
59    30    32    1
60    30    33    1
61    32    63    1
62    33    34    1
63    33    64    1
64    33    65    1
65    34    35    1
66    34    36    1
67    36    66    1
@<TRIPOS>SUBSTRUCTURE
1   ZINC000013912394 1     RESIDUE    1   A     ZIN   1
