@<TRIPOS>MOLECULE
ZINC000003925861
69   73    0    0    0
SMALL
NO_CHARGES
@<TRIPOS>ATOM
1 C1            -0.0187     1.5258     0.0104 C.3
2 C2             0.0021    -0.0041     0.0020 C.3
3 O3             0.6817    -0.4723    -1.1926 O.3
4 C4             0.7865    -1.8049    -1.3536 C.2
5 O5             0.3228    -2.5561    -0.5186 O.2
6 N6             1.4059    -2.3058    -2.4408 N.am
7 C7             1.5199    -3.7558    -2.6159 C.3
8 H8             0.6265    -4.2413    -2.2234 H
9 C9             2.7513    -4.2662    -1.8638 C.3
10 C10            2.8585    -5.7810    -2.0424 C.3
11 C11            3.0026    -6.1186    -3.5284 C.3
12 H12            3.9178    -5.6774    -3.9233 H
13 C13            1.7887    -5.5814    -4.2961 C.3
14 H14            0.8822    -6.0710    -3.9404 H
15 C15            1.9884    -5.8817    -5.7806 C.3
16 C16            2.0565    -7.3869    -6.0395 C.3
17 H17            1.0780    -7.8649    -5.9930 H
18 C18            2.7424    -7.5529    -7.4032 C.2
19 O19            2.2123    -7.8337    -8.4520 O.2
20 O20            4.0560    -7.3223    -7.1958 O.3
21 C21            4.4224    -7.6428    -5.8179 C.3
22 H22            4.8455    -6.7668    -5.3262 H
23 C23            5.4232    -8.7998    -5.7910 C.3
24 C24            3.0947    -8.0588    -5.1185 C.3
25 H25            2.9827    -9.1414    -5.1771 H
26 C26            3.0445    -7.6397    -3.6882 C.3
27 H27            2.1438    -8.0493    -3.2308 H
28 C28            4.2506    -8.1926    -2.9736 C.2
29 C29            4.0928    -9.0174    -1.9463 C.2
30 C30            5.2745    -9.5591    -1.2461 C.ar
31 C31            5.0992   -10.4308    -0.1698 C.ar
32 C32            6.2108   -10.9322     0.4787 C.ar
33 C33            7.4767   -10.5434     0.0275 C.ar
34 C34            8.7002   -11.0554     0.6911 C.ar
35 C35            8.5961   -11.9341     1.7678 C.ar
36 C36            9.7375   -12.4086     2.3822 C.ar
37 C37           10.9839   -12.0141     1.9319 C.ar
38 C38           11.0947   -11.1406     0.8618 C.ar
39 F39           12.3152   -10.7590     0.4259 F
40 C40            9.9582   -10.6639     0.2363 C.ar
41 C41            7.5735    -9.6688    -1.0544 C.ar
42 N42            6.4926    -9.2155    -1.6513 N.ar
43 C43            1.6662    -4.0806    -4.1028 C.3
44 H44            1.0039     1.9031     0.0027 H
45 H45           -0.5459     1.8868    -0.8726 H
46 H46           -0.5289     1.8773     0.9072 H
47 H47            0.5293    -0.3651     0.8851 H
48 H48           -1.0205    -0.3814     0.0098 H
49 H49            1.7761    -1.7061    -3.1073 H
50 H50            3.6459    -3.7883    -2.2633 H
51 H51            2.6543    -4.0305    -0.8041 H
52 H52            3.7301    -6.1489    -1.5010 H
53 H53            1.9607    -6.2568    -1.6480 H
54 H54            1.1568    -5.4599    -6.3450 H
55 H55            2.9168    -5.4196    -6.1164 H
56 H56            6.3306    -8.5076    -6.3195 H
57 H57            5.6676    -9.0448    -4.7574 H
58 H58            4.9843    -9.6711    -6.2770 H
59 H59            5.2434    -7.9175    -3.2976 H
60 H60            3.0999    -9.2925    -1.6223 H
61 H61            4.1066   -10.7094     0.1520 H
62 H62            6.1053   -11.6080     1.3145 H
63 H63            7.6235   -12.2432     2.1214 H
64 H64            9.6568   -13.0893     3.2169 H
65 H65           11.8741   -12.3877     2.4160 H
66 H66           10.0445    -9.9834    -0.5979 H
67 H67            8.5469    -9.3635    -1.4087 H
68 H68            0.7964    -3.7148    -4.6485 H
69 H69            2.5632    -3.5919    -4.4831 H
@<TRIPOS>BOND
1    1    2 1
2    1   44 1
3    1   45 1
4    1   46 1
5    2    3 1
6    2   47 1
7    2   48 1
8    3    4 1
9    4    5 2
10    4    6 am
11    6    7 1
12    6   49 1
13    7    8 1
14    7   43 1
15    7    9 1
16    9   10 1
17    9   50 1
18    9   51 1
19   10   11 1
20   10   52 1
21   10   53 1
22   11   12 1
23   11   26 1
24   11   13 1
25   13   14 1
26   13   15 1
27   13   43 1
28   15   16 1
29   15   54 1
30   15   55 1
31   16   17 1
32   16   24 1
33   16   18 1
34   18   19 2
35   18   20 1
36   20   21 1
37   21   22 1
38   21   23 1
39   21   24 1
40   23   56 1
41   23   57 1
42   23   58 1
43   24   25 1
44   24   26 1
45   26   27 1
46   26   28 1
47   28   29 2
48   28   59 1
49   29   30 1
50   29   60 1
51   30   42 ar
52   30   31 ar
53   31   32 ar
54   31   61 1
55   32   33 ar
56   32   62 1
57   33   34 1
58   33   41 ar
59   34   40 ar
60   34   35 ar
61   35   36 ar
62   35   63 1
63   36   37 ar
64   36   64 1
65   37   38 ar
66   37   65 1
67   38   39 1
68   38   40 ar
69   40   66 1
70   41   42 ar
71   41   67 1
72   43   68 1
73   43   69 1
