@<TRIPOS>MOLECULE
ZINC000096942202
44    45    1     0     0
SMALL
USER_CHARGES
@<TRIPOS>ATOM
1      C1      1.9561   -1.8912   -2.4196 C.3      1 ZINC000096942202   -0.1500
2      C2      1.1090   -1.5261   -1.1989 C.3      1 ZINC000096942202    0.0600
3      O3      1.7028   -2.0816   -0.0238 O.3      1 ZINC000096942202   -0.3500
4      C4      1.0746   -1.8502    1.1480 C.2      1 ZINC000096942202    0.5300
5      O5      0.0500   -1.1941    1.1699 O.2      1 ZINC000096942202   -0.4900
6      C6      1.6071   -2.3702    2.3505 C.2      1 ZINC000096942202   -0.2300
7      C7      1.4893   -3.6844    2.6076 C.2      1 ZINC000096942202    0.1900
8      C8      0.8014   -4.5794    1.6092 C.3      1 ZINC000096942202   -0.1300
9      N9      1.9868   -4.2194    3.7644 N.pl3    1 ZINC000096942202   -0.6300
10     C10     2.2823   -3.4106    4.8277 C.2      1 ZINC000096942202    0.2400
11     C11     2.4411   -4.0133    6.1998 C.3      1 ZINC000096942202   -0.1200
12     C12     2.4332   -2.0850    4.6634 C.2      1 ZINC000096942202   -0.2600
13     C13     2.7312   -1.2783    5.7860 C.2      1 ZINC000096942202    0.5200
14     O14     2.8484   -1.7855    6.8859 O.2      1 ZINC000096942202   -0.5200
15     O15     2.8856    0.0541    5.6374 O.3      1 ZINC000096942202   -0.3400
16     C16     3.1856    0.8076    6.8140 C.3      1 ZINC000096942202    0.0400
17     C17     2.2975   -1.4431    3.3101 C.3      1 ZINC000096942202    0.0800
18     H18     1.7104   -0.5295    3.4035 H        1 ZINC000096942202    0.1100
19     C19     3.6674   -1.1008    2.7836 C.ar     1 ZINC000096942202   -0.0600
20     C20     4.6012   -2.1003    2.5858 C.ar     1 ZINC000096942202   -0.0900
21     C21     5.8582   -1.7872    2.1023 C.ar     1 ZINC000096942202   -0.1000
22     C22     6.1823   -0.4745    1.8164 C.ar     1 ZINC000096942202   -0.1000
23     C23     5.2487    0.5273    2.0138 C.ar     1 ZINC000096942202   -0.0300
24     Cl24    5.6553    2.1764    1.6548 Cl       1 ZINC000096942202   -0.0500
25     C25     3.9884    0.2131    2.4929 C.ar     1 ZINC000096942202   -0.0200
26     Cl26    2.8156    1.4689    2.7407 Cl       1 ZINC000096942202   -0.0400
27     H27     2.0063   -2.9758   -2.5158 H        1 ZINC000096942202    0.0700
28     H28     1.5032   -1.4675   -3.3160 H        1 ZINC000096942202    0.0800
29     H29     2.9622   -1.4903   -2.2967 H        1 ZINC000096942202    0.0700
30     H30     1.0588   -0.4416   -1.1027 H        1 ZINC000096942202    0.0700
31     H31     0.1029   -1.9270   -1.3218 H        1 ZINC000096942202    0.0700
32     H32     1.5268   -4.9296    0.8749 H        1 ZINC000096942202    0.1000
33     H33     0.3668   -5.4346    2.1269 H        1 ZINC000096942202    0.0800
34     H34     0.0131   -4.0216    1.1039 H        1 ZINC000096942202    0.0900
35     H35     2.1304   -5.1764    3.8312 H        1 ZINC000096942202    0.4200
36     H36     2.2857   -5.0907    6.1436 H        1 ZINC000096942202    0.0600
37     H37     3.4453   -3.8101    6.5719 H        1 ZINC000096942202    0.1000
38     H38     1.7073   -3.5752    6.8763 H        1 ZINC000096942202    0.1100
39     H39     3.2839    1.8618    6.5551 H        1 ZINC000096942202    0.1000
40     H40     2.3808    0.6850    7.5389 H        1 ZINC000096942202    0.0600
41     H41     4.1207    0.4507    7.2455 H        1 ZINC000096942202    0.0600
42     H42     4.3491   -3.1264    2.8092 H        1 ZINC000096942202    0.1300
43     H43     6.5874   -2.5689    1.9484 H        1 ZINC000096942202    0.1400
44     H44     7.1644   -0.2306    1.4391 H        1 ZINC000096942202    0.1400
@<TRIPOS>BOND
1     1     2     1
2     1     27    1
3     1     28    1
4     1     29    1
5     2     3     1
6     2     30    1
7     2     31    1
8     3     4     1
9     4     5     2
10    4     6     1
11    6     17    1
12    6     7     2
13    7     8     1
14    7     9     1
15    8     32    1
16    8     33    1
17    8     34    1
18    9     10    1
19    9     35    1
20    10    11    1
21    10    12    2
22    11    36    1
23    11    37    1
24    11    38    1
25    12    13    1
26    12    17    1
27    13    14    2
28    13    15    1
29    15    16    1
30    16    39    1
31    16    40    1
32    16    41    1
33    17    18    1
34    17    19    1
35    19    25    ar
36    19    20    ar
37    20    21    ar
38    20    42    1
39    21    22    ar
40    21    43    1
41    22    23    ar
42    22    44    1
43    23    24    1
44    23    25    ar
45    25    26    1
@<TRIPOS>SUBSTRUCTURE
1   ZINC000096942202 1     RESIDUE    1   A     ZIN   1
