@<TRIPOS>MOLECULE
ZINC000000014257
28   29    0    0    0
SMALL
USER_CHARGES
NO_NAME
@<TRIPOS>ATOM
1 C1       -0.0251     1.4558    -0.0134 C.3    1 <0>       0.0600
2 N2       -0.0012    -0.0090    -0.0120 N.am   1 <0>      -0.5800
3 C3        0.0096    -0.7344    -1.1372 C.2    1 <0>       0.5300
4 O4        0.0016    -0.2845    -2.2628 O.2    1 <0>      -0.4800
5 C5        0.0339    -2.2049    -0.7812 C.3    1 <0>      -0.1500
6 C6        0.0353    -2.2035     0.7611 C.3    1 <0>      -0.0500
7 C7        1.3051    -2.8661     1.2990 C.3    1 <0>      -0.1400
8 C8       -1.1907    -2.8999     1.2931 C.ar   1 <0>      -0.0700
9 C9       -2.4439    -2.3625     1.0665 C.ar   1 <0>      -0.1100
10 C10      -3.5685    -3.0013     1.5546 C.ar   1 <0>      -0.1100
11 C11      -3.4398    -4.1778     2.2689 C.ar   1 <0>      -0.1100
12 C12      -2.1865    -4.7157     2.4947 C.ar   1 <0>      -0.1200
13 C13      -1.0623    -4.0791     2.0030 C.ar   1 <0>      -0.1000
14 C14       0.0173    -0.7323     1.1144 C.2    1 <0>       0.5400
15 O15       0.0131    -0.2803     2.2392 O.2    1 <0>      -0.4700
16 H16       0.9965     1.8358    -0.0198 H      1 <0>       0.0700
17 H17      -0.5501     1.8098    -0.9006 H      1 <0>       0.0900
18 H18      -0.5395     1.8116     0.8793 H      1 <0>       0.0900
19 H19      -0.8548    -2.7069    -1.1636 H      1 <0>       0.1300
20 H20       0.9379    -2.6777    -1.1652 H      1 <0>       0.1300
21 H21       2.1786    -2.3188     0.9447 H      1 <0>       0.0700
22 H22       1.2869    -2.8551     2.3888 H      1 <0>       0.0800
23 H23       1.3544    -3.8965     0.9468 H      1 <0>       0.0800
24 H24      -2.5445    -1.4433     0.5085 H      1 <0>       0.1100
25 H25      -4.5476    -2.5811     1.3782 H      1 <0>       0.1300
26 H26      -4.3183    -4.6765     2.6508 H      1 <0>       0.1300
27 H27      -2.0860    -5.6347     3.0531 H      1 <0>       0.1300
28 H28      -0.0832    -4.4994     2.1794 H      1 <0>       0.1300
@<TRIPOS>BOND
1    1    2 1
2    1   16 1
3    1   17 1
4    1   18 1
5    2   14 am
6    2    3 am
7    3    4 2
8    3    5 1
9    5    6 1
10    5   19 1
11    5   20 1
12    6    7 1
13    6    8 1
14    6   14 1
15    7   21 1
16    7   22 1
17    7   23 1
18    8   13 ar
19    8    9 ar
20    9   10 ar
21    9   24 1
22   10   11 ar
23   10   25 1
24   11   12 ar
25   11   26 1
26   12   13 ar
27   12   27 1
28   13   28 1
29   14   15 2
