@<TRIPOS>MOLECULE
ZINC000003802417
63    65    1     0     0
SMALL
USER_CHARGES
@<TRIPOS>ATOM
1      C1      0.5493    1.2919    1.0617 C.3      1 ZINC000003802417   -0.1600
2      C2      0.4416   -0.1919    0.7047 C.3      1 ZINC000003802417   -0.1000
3      H3     -0.5921   -0.5192    0.8166 H        1 ZINC000003802417    0.1000
4      C4      0.8905   -0.4030   -0.7429 C.3      1 ZINC000003802417    0.0000
5      N5      0.7905   -1.8263   -1.0874 N.4      1 ZINC000003802417   -0.3800
6      H6     -0.1561   -2.1419   -0.9374 H        1 ZINC000003802417    0.4300
7      C7      1.1495   -2.0132   -2.4995 C.3      1 ZINC000003802417    0.0100
8      C8      0.9263   -3.4747   -2.8934 C.3      1 ZINC000003802417   -0.1300
9      H9      1.4808   -4.1227   -2.2145 H        1 ZINC000003802417    0.1200
10     C10     1.4166   -3.6976   -4.3254 C.3      1 ZINC000003802417   -0.0700
11     C11     2.9119   -3.5178   -4.3782 C.ar     1 ZINC000003802417   -0.1000
12     C12     3.4488   -2.2985   -4.7471 C.ar     1 ZINC000003802417   -0.1200
13     C13     4.8204   -2.1336   -4.7954 C.ar     1 ZINC000003802417   -0.1200
14     C14     5.6551   -3.1877   -4.4745 C.ar     1 ZINC000003802417   -0.1100
15     C15     5.1182   -4.4067   -4.1048 C.ar     1 ZINC000003802417   -0.1100
16     C16     3.7466   -4.5704   -4.0522 C.ar     1 ZINC000003802417   -0.1100
17     C17    -0.5430   -3.7989   -2.8093 C.2      1 ZINC000003802417    0.4900
18     O18    -1.3517   -2.9100   -2.6457 O.2      1 ZINC000003802417   -0.5700
19     N19    -0.9584   -5.0766   -2.9159 N.am     1 ZINC000003802417   -0.6700
20     C20    -2.3911   -5.3802   -2.9557 C.3      1 ZINC000003802417    0.0400
21     C21    -2.5858   -6.8696   -3.0768 C.2      1 ZINC000003802417    0.4900
22     O22    -1.6175   -7.6090   -3.1254 O.co2    1 ZINC000003802417   -0.6900
23     O23    -3.7115   -7.3353   -3.1262 O.co2    1 ZINC000003802417   -0.6800
24     C24     1.7044   -2.6079   -0.2457 C.3      1 ZINC000003802417   -0.0400
25     C25     1.2868   -2.4817    1.2210 C.3      1 ZINC000003802417   -0.1400
26     C26     1.3405   -1.0089    1.6373 C.3      1 ZINC000003802417   -0.0200
27     C27     0.8481   -0.8664    3.0789 C.3      1 ZINC000003802417   -0.1400
28     C28     2.7580   -0.5077    1.5354 C.ar     1 ZINC000003802417   -0.0700
29     C29     3.0503    0.8063    1.8500 C.ar     1 ZINC000003802417   -0.1300
30     C30     4.3501    1.2693    1.7575 C.ar     1 ZINC000003802417   -0.0900
31     C31     5.3598    0.4193    1.3504 C.ar     1 ZINC000003802417   -0.1400
32     C32     5.0691   -0.9000    1.0341 C.ar     1 ZINC000003802417    0.1200
33     O33     6.0609   -1.7384    0.6336 O.3      1 ZINC000003802417   -0.5000
34     C34     3.7654   -1.3634    1.1331 C.ar     1 ZINC000003802417   -0.1700
35     H35     1.4945    1.6875    0.6899 H        1 ZINC000003802417    0.0800
36     H36    -0.2772    1.8364    0.6051 H        1 ZINC000003802417    0.0700
37     H37     0.5073    1.4090    2.1446 H        1 ZINC000003802417    0.0800
38     H38     0.2522    0.1773   -1.4091 H        1 ZINC000003802417    0.1300
39     H39     1.9239   -0.0745   -0.8540 H        1 ZINC000003802417    0.1300
40     H40     0.5263   -1.3702   -3.1210 H        1 ZINC000003802417    0.1400
41     H41     2.1981   -1.7537   -2.6453 H        1 ZINC000003802417    0.1300
42     H42     1.1607   -4.7081   -4.6440 H        1 ZINC000003802417    0.1000
43     H43     0.9402   -2.9759   -4.9890 H        1 ZINC000003802417    0.0900
44     H44     2.7967   -1.4750   -4.9978 H        1 ZINC000003802417    0.1200
45     H45     5.2399   -1.1812   -5.0843 H        1 ZINC000003802417    0.1200
46     H46     6.7267   -3.0591   -4.5130 H        1 ZINC000003802417    0.1200
47     H47     5.7703   -5.2304   -3.8544 H        1 ZINC000003802417    0.1300
48     H48     3.3270   -5.5227   -3.7634 H        1 ZINC000003802417    0.1300
49     H49    -0.3088   -5.7952   -2.9663 H        1 ZINC000003802417    0.4100
50     H50    -2.8632   -5.0254   -2.0395 H        1 ZINC000003802417    0.0700
51     H51    -2.8440   -4.8836   -3.8137 H        1 ZINC000003802417    0.0700
52     H52     1.6669   -3.6554   -0.5448 H        1 ZINC000003802417    0.1300
53     H53     2.7204   -2.2324   -0.3673 H        1 ZINC000003802417    0.1400
54     H54     0.2709   -2.8572    1.3438 H        1 ZINC000003802417    0.1000
55     H55     1.9676   -3.0612    1.8445 H        1 ZINC000003802417    0.1100
56     H56     1.4852   -1.4538    3.7402 H        1 ZINC000003802417    0.0700
57     H57     0.8868    0.1821    3.3741 H        1 ZINC000003802417    0.0700
58     H58    -0.1784   -1.2262    3.1495 H        1 ZINC000003802417    0.0700
59     H59     2.2621    1.4726    2.1682 H        1 ZINC000003802417    0.1400
60     H60     4.5758    2.2964    2.0035 H        1 ZINC000003802417    0.1300
61     H61     6.3747    0.7814    1.2780 H        1 ZINC000003802417    0.1300
62     H62     6.4904   -2.2139    1.3579 H        1 ZINC000003802417    0.4000
63     H63     3.5366   -2.3899    0.8874 H        1 ZINC000003802417    0.1400
@<TRIPOS>BOND
1     1     2     1
2     1     35    1
3     1     36    1
4     1     37    1
5     2     3     1
6     2     26    1
7     2     4     1
8     4     5     1
9     4     38    1
10    4     39    1
11    5     6     1
12    5     7     1
13    5     24    1
14    7     8     1
15    7     40    1
16    7     41    1
17    8     9     1
18    8     10    1
19    8     17    1
20    10    11    1
21    10    42    1
22    10    43    1
23    11    16    ar
24    11    12    ar
25    12    13    ar
26    12    44    1
27    13    14    ar
28    13    45    1
29    14    15    ar
30    14    46    1
31    15    16    ar
32    15    47    1
33    16    48    1
34    17    18    2
35    17    19    am
36    19    20    1
37    19    49    1
38    20    21    1
39    20    50    1
40    20    51    1
41    21    22    ar
42    21    23    ar
43    24    25    1
44    24    52    1
45    24    53    1
46    25    26    1
47    25    54    1
48    25    55    1
49    26    27    1
50    26    28    1
51    27    56    1
52    27    57    1
53    27    58    1
54    28    34    ar
55    28    29    ar
56    29    30    ar
57    29    59    1
58    30    31    ar
59    30    60    1
60    31    32    ar
61    31    61    1
62    32    33    1
63    32    34    ar
64    33    62    1
65    34    63    1
@<TRIPOS>SUBSTRUCTURE
1   ZINC000003802417 1     RESIDUE    1   A     ZIN   1
