@<TRIPOS>MOLECULE
ZINC000003079340
26   25    0    0    0
SMALL
USER_CHARGES
NO_NAME
@<TRIPOS>ATOM
1 C1        0.1266     1.1662     0.4240 C.3    1 <0>      -0.0500
2 N2        0.0837    -0.2669     0.1042 N.4    1 <0>      -0.2600
3 C3        0.9269    -1.0059     1.0534 C.3    1 <0>      -0.0500
4 C4       -1.3006    -0.7489     0.2007 C.3    1 <0>      -0.0400
5 C5        0.5820    -0.4790    -1.2614 C.3    1 <0>      -0.0500
6 C6        2.0496    -0.0538    -1.3405 C.3    1 <0>       0.1100
7 H7        2.6162    -0.5561    -0.5564 H      1 <0>       0.1200
8 O8        2.1457     1.3612    -1.1658 O.3    1 <0>      -0.5300
9 C9        2.6190    -0.4388    -2.7075 C.3    1 <0>      -0.2200
10 C10       4.0941    -0.1321    -2.7416 C.2    1 <0>       0.4900
11 O11       4.6394     0.3497    -1.7633 O.co2  1 <0>      -0.6800
12 O12       4.7422    -0.3658    -3.7475 O.co2  1 <0>      -0.6900
13 H13       1.1637     1.4825     0.5363 H      1 <0>       0.1500
14 H14      -0.3407     1.7325    -0.3816 H      1 <0>       0.1100
15 H15      -0.4112     1.3470     1.3547 H      1 <0>       0.1100
16 H16       0.5572    -0.8486     2.0666 H      1 <0>       0.1200
17 H17       0.8950    -2.0693     0.8160 H      1 <0>       0.1200
18 H18       1.9540    -0.6483     0.9817 H      1 <0>       0.1300
19 H19      -1.9262    -0.2006    -0.5036 H      1 <0>       0.1200
20 H20      -1.3324    -1.8123    -0.0366 H      1 <0>       0.1200
21 H21      -1.6703    -0.5916     1.2140 H      1 <0>       0.1200
22 H22       0.4949    -1.5342    -1.5201 H      1 <0>       0.1300
23 H23      -0.0068     0.1161    -1.9595 H      1 <0>       0.1300
24 H24       1.6641     1.8731    -1.8300 H      1 <0>       0.3700
25 H25       2.4654    -1.5043    -2.8781 H      1 <0>       0.0700
26 H26       2.1114     0.1308    -3.4860 H      1 <0>       0.0700
@<TRIPOS>BOND
1    1    2 1
2    1   13 1
3    1   14 1
4    1   15 1
5    2    3 1
6    2    4 1
7    2    5 1
8    3   16 1
9    3   17 1
10    3   18 1
11    4   19 1
12    4   20 1
13    4   21 1
14    5    6 1
15    5   22 1
16    5   23 1
17    6    7 1
18    6    8 1
19    6    9 1
20    8   24 1
21    9   10 1
22    9   25 1
23    9   26 1
24   10   11 ar
25   10   12 ar
