@<TRIPOS>MOLECULE
ZINC000004097305
62    66    1     0     0
SMALL
USER_CHARGES
@<TRIPOS>ATOM
1      C1      0.7287    2.4299    1.5260 C.3      1 ZINC000004097305   -0.1900
2      C2      0.5069    0.9268    1.3458 C.3      1 ZINC000004097305    0.2400
3      C3     -0.9784    0.5928    1.4982 C.3      1 ZINC000004097305   -0.1400
4      O4      0.9783    0.5093    0.0544 O.3      1 ZINC000004097305   -0.3700
5      C5      2.3308    0.0484    0.2183 C.3      1 ZINC000004097305    0.0700
6      H6      3.0353    0.6224   -0.3837 H        1 ZINC000004097305    0.1100
7      C7      2.3744   -1.4624   -0.1182 C.3      1 ZINC000004097305   -0.1200
8      C8      2.5243   -2.1734    1.2224 C.3      1 ZINC000004097305   -0.0800
9      H9      1.5411   -2.3436    1.6611 H        1 ZINC000004097305    0.0900
10     C10     3.3134   -3.4683    1.2157 C.3      1 ZINC000004097305   -0.0800
11     H11     4.3279   -3.2786    0.8651 H        1 ZINC000004097305    0.1100
12     C12     2.6338   -4.4888    0.3005 C.3      1 ZINC000004097305   -0.1400
13     C13     3.4592   -5.7791    0.2641 C.3      1 ZINC000004097305    0.1200
14     H14     4.4304   -5.5819   -0.1900 H        1 ZINC000004097305    0.1100
15     F15     2.7808   -6.7531   -0.4763 F        1 ZINC000004097305   -0.2000
16     C16     3.6488   -6.2586    1.6909 C.2      1 ZINC000004097305   -0.0700
17     C17     3.3425   -7.5125    1.9933 C.2      1 ZINC000004097305   -0.2000
18     C18     3.4930   -8.0077    3.3702 C.2      1 ZINC000004097305    0.4100
19     O19     3.2481   -9.1677    3.6444 O.2      1 ZINC000004097305   -0.4500
20     C20     3.9464   -7.0681    4.4096 C.2      1 ZINC000004097305   -0.2200
21     C21     4.2526   -5.8221    4.0837 C.2      1 ZINC000004097305   -0.0600
22     C22     4.1800   -5.2810    2.6973 C.3      1 ZINC000004097305    0.0000
23     C23     5.5974   -4.8940    2.2706 C.3      1 ZINC000004097305   -0.1400
24     C24     3.3538   -3.9926    2.6602 C.3      1 ZINC000004097305   -0.0500
25     H25     2.3342   -4.2110    2.9779 H        1 ZINC000004097305    0.0900
26     C26     3.9681   -2.9699    3.6111 C.3      1 ZINC000004097305    0.1100
27     H27     3.8935   -3.3440    4.6322 H        1 ZINC000004097305    0.0700
28     O28     5.3468   -2.7938    3.2789 O.3      1 ZINC000004097305   -0.5500
29     C29     3.2548   -1.6116    3.5214 C.3      1 ZINC000004097305   -0.1300
30     C30     3.3118   -1.1509    2.0823 C.3      1 ZINC000004097305   -0.0400
31     C31     4.7618   -1.1193    1.5948 C.3      1 ZINC000004097305   -0.1700
32     C32     2.6119    0.1891    1.7487 C.3      1 ZINC000004097305    0.0400
33     C33     3.4499    1.3945    2.0890 C.2      1 ZINC000004097305    0.3600
34     O34     4.1796    1.8772    1.2565 O.2      1 ZINC000004097305   -0.4100
35     C35     3.3774    1.9975    3.4682 C.3      1 ZINC000004097305    0.0300
36     O36     4.1632    3.1905    3.5083 O.3      1 ZINC000004097305   -0.5500
37     O37     1.2829    0.1911    2.3152 O.3      1 ZINC000004097305   -0.3400
38     H38     1.7916    2.6538    1.4350 H        1 ZINC000004097305    0.0600
39     H39     0.1760    2.9731    0.7595 H        1 ZINC000004097305    0.0800
40     H40     0.3765    2.7335    2.5118 H        1 ZINC000004097305    0.0800
41     H41    -1.5526    1.1416    0.7517 H        1 ZINC000004097305    0.0800
42     H42    -1.1266   -0.4776    1.3558 H        1 ZINC000004097305    0.0700
43     H43    -1.3141    0.8766    2.4956 H        1 ZINC000004097305    0.0800
44     H44     1.4482   -1.7673   -0.6053 H        1 ZINC000004097305    0.0900
45     H45     3.2284   -1.6816   -0.7590 H        1 ZINC000004097305    0.0800
46     H46     1.6354   -4.7075    0.6793 H        1 ZINC000004097305    0.0800
47     H47     2.5573   -4.0786   -0.7065 H        1 ZINC000004097305    0.0900
48     H48     2.9797   -8.1760    1.2222 H        1 ZINC000004097305    0.1500
49     H49     4.0292   -7.3950    5.4356 H        1 ZINC000004097305    0.1400
50     H50     4.5752   -5.1570    4.8711 H        1 ZINC000004097305    0.1300
51     H51     6.1310   -5.7829    1.9343 H        1 ZINC000004097305    0.0500
52     H52     5.5471   -4.1707    1.4567 H        1 ZINC000004097305    0.0700
53     H53     6.1238   -4.4527    3.1169 H        1 ZINC000004097305    0.1000
54     H54     5.8084   -2.1564    3.8409 H        1 ZINC000004097305    0.3700
55     H55     2.2092   -1.7216    3.8089 H        1 ZINC000004097305    0.0900
56     H56     3.7464   -0.8902    4.1741 H        1 ZINC000004097305    0.0700
57     H57     5.1472   -2.1371    1.5348 H        1 ZINC000004097305    0.1200
58     H58     4.8037   -0.6562    0.6090 H        1 ZINC000004097305    0.0500
59     H59     5.3674   -0.5420    2.2935 H        1 ZINC000004097305    0.0500
60     H60     2.3410    2.2369    3.7060 H        1 ZINC000004097305    0.0900
61     H61     3.7621    1.2844    4.1972 H        1 ZINC000004097305    0.0800
62     H62     4.1626    3.6330    4.3681 H        1 ZINC000004097305    0.3900
@<TRIPOS>BOND
1     1     2     1
2     1     38    1
3     1     39    1
4     1     40    1
5     2     37    1
6     2     3     1
7     2     4     1
8     3     41    1
9     3     42    1
10    3     43    1
11    4     5     1
12    5     6     1
13    5     32    1
14    5     7     1
15    7     8     1
16    7     44    1
17    7     45    1
18    8     9     1
19    8     30    1
20    8     10    1
21    10    11    1
22    10    24    1
23    10    12    1
24    12    13    1
25    12    46    1
26    12    47    1
27    13    14    1
28    13    15    1
29    13    16    1
30    16    22    1
31    16    17    2
32    17    18    1
33    17    48    1
34    18    19    2
35    18    20    1
36    20    21    2
37    20    49    1
38    21    22    1
39    21    50    1
40    22    23    1
41    22    24    1
42    23    51    1
43    23    52    1
44    23    53    1
45    24    25    1
46    24    26    1
47    26    27    1
48    26    28    1
49    26    29    1
50    28    54    1
51    29    30    1
52    29    55    1
53    29    56    1
54    30    31    1
55    30    32    1
56    31    57    1
57    31    58    1
58    31    59    1
59    32    33    1
60    32    37    1
61    33    34    2
62    33    35    1
63    35    36    1
64    35    60    1
65    35    61    1
66    36    62    1
@<TRIPOS>SUBSTRUCTURE
1   ZINC000004097305 1     RESIDUE    1   A     ZIN   1
