@<TRIPOS>MOLECULE
ZINC000013550868
20    20    1     0     0
SMALL
USER_CHARGES
@<TRIPOS>ATOM
1      C1     -2.1938    1.4701    0.6085 C.3      1 ZINC000013550868   -0.1700
2      C2     -2.1692   -0.0367    0.6076 C.2      1 ZINC000013550868    0.5100
3      O3     -3.0613   -0.6582    1.1452 O.2      1 ZINC000013550868   -0.5300
4      N4     -1.1558   -0.6938    0.0094 N.am     1 ZINC000013550868   -0.6800
5      C5     -1.0811   -2.0904    0.0916 C.ar     1 ZINC000013550868    0.1300
6      C6      0.1554   -2.7160    0.1778 C.ar     1 ZINC000013550868   -0.1300
7      C7      0.2283   -4.0925    0.2593 C.ar     1 ZINC000013550868   -0.1300
8      C8     -0.9336   -4.8504    0.2546 C.ar     1 ZINC000013550868    0.0900
9      O9     -0.8611   -6.2058    0.3344 O.3      1 ZINC000013550868   -0.5000
10     C10    -2.1694   -4.2260    0.1689 C.ar     1 ZINC000013550868   -0.1300
11     C11    -2.2439   -2.8493    0.0927 C.ar     1 ZINC000013550868   -0.1000
12     H12    -3.0823    1.8186    1.1350 H        1 ZINC000013550868    0.1000
13     H13    -1.3027    1.8477    1.1099 H        1 ZINC000013550868    0.0900
14     H14    -2.2143    1.8337   -0.4189 H        1 ZINC000013550868    0.0900
15     H15    -0.4782   -0.1997   -0.4781 H        1 ZINC000013550868    0.4100
16     H16     1.0601   -2.1261    0.1808 H        1 ZINC000013550868    0.1300
17     H17     1.1901   -4.5792    0.3264 H        1 ZINC000013550868    0.1300
18     H18    -0.8763   -6.5479    1.2387 H        1 ZINC000013550868    0.3900
19     H19    -3.0736   -4.8167    0.1652 H        1 ZINC000013550868    0.1300
20     H20    -3.2061   -2.3633    0.0263 H        1 ZINC000013550868    0.1400
@<TRIPOS>BOND
1     1     2     1
2     1     12    1
3     1     13    1
4     1     14    1
5     2     3     2
6     2     4     am
7     4     5     1
8     4     15    1
9     5     11    ar
10    5     6     ar
11    6     7     ar
12    6     16    1
13    7     8     ar
14    7     17    1
15    8     9     1
16    8     10    ar
17    9     18    1
18    10    11    ar
19    10    19    1
20    11    20    1
@<TRIPOS>SUBSTRUCTURE
1   ZINC000013550868 1     RESIDUE    1   A     ZIN   1
