@<TRIPOS>MOLECULE
ZINC000118912450
56   59    0    0    0
SMALL
USER_CHARGES
NO_NAME
@<TRIPOS>ATOM
1 C1        0.4329     1.6885     0.0998 C.3    1 <0>      -0.1800
2 C2        0.3678     0.1659    -0.0358 C.3    1 <0>       0.1400
3 O3        1.1836    -0.2687    -1.1257 O.3    1 <0>      -0.5500
4 C4       -1.0973    -0.2924    -0.2433 C.3    1 <0>      -0.1500
5 C5       -1.4696    -1.1456     0.9999 C.3    1 <0>      -0.1100
6 C6       -0.4990    -0.6344     2.0700 C.3    1 <0>      -0.0800
7 H7       -0.8204     0.3390     2.4407 H      1 <0>       0.0700
8 C8       -0.2337    -1.5789     3.2275 C.3    1 <0>      -0.0800
9 H9        0.1470    -2.5294     2.8537 H      1 <0>       0.0900
10 C10      -1.5182    -1.8078     4.0282 C.3    1 <0>      -0.1100
11 C11      -1.2123    -2.7453     5.1954 C.3    1 <0>      -0.1200
12 C12      -0.1635    -2.1163     6.1175 C.3    1 <0>      -0.0700
13 H13      -0.5584    -1.2019     6.5602 H      1 <0>       0.0800
14 C14       0.1637    -3.1322     7.2195 C.3    1 <0>      -0.1300
15 C15       1.3680    -2.6978     7.9985 C.2    1 <0>       0.1800
16 O16       1.5850    -3.2576     9.2038 O.3    1 <0>      -0.4900
17 C17       2.2381    -1.7837     7.5582 C.2    1 <0>      -0.2800
18 C18       3.3446    -1.4722     8.3679 C.2    1 <0>       0.3700
19 O19       4.1031    -0.5807     8.0431 O.2    1 <0>      -0.4800
20 C20       2.0956    -1.0739     6.2462 C.3    1 <0>      -0.0400
21 C21       1.1116    -1.8052     5.3262 C.3    1 <0>      -0.0500
22 C22       1.7306    -3.1158     4.8362 C.3    1 <0>      -0.1500
23 C23       0.8117    -0.9133     4.1324 C.3    1 <0>      -0.0700
24 H24       0.3867     0.0232     4.4934 H      1 <0>       0.0700
25 C25       2.1030    -0.6076     3.3803 C.3    1 <0>      -0.1200
26 C26       1.8335     0.2245     2.1156 C.3    1 <0>      -0.1000
27 C27       0.8189    -0.4997     1.2599 C.3    1 <0>      -0.0500
28 C28       1.3046    -1.9220     0.9738 C.3    1 <0>      -0.1400
29 H29       1.4573     1.9905     0.3174 H      1 <0>       0.0700
30 H30       0.1081     2.1505    -0.8326 H      1 <0>       0.0600
31 H31      -0.2206     2.0093     0.9111 H      1 <0>       0.0700
32 H32       0.9308     0.1067    -1.9803 H      1 <0>       0.3700
33 H33      -1.7543     0.5746    -0.3124 H      1 <0>       0.0700
34 H34      -1.1761    -0.8952    -1.1480 H      1 <0>       0.0700
35 H35      -2.5023    -0.9636     1.2972 H      1 <0>       0.0700
36 H36      -1.3045    -2.2051     0.8040 H      1 <0>       0.0700
37 H37      -1.8843    -0.8552     4.4113 H      1 <0>       0.0600
38 H38      -2.2737    -2.2595     3.3854 H      1 <0>       0.0700
39 H39      -2.1262    -2.9289     5.7603 H      1 <0>       0.0600
40 H40      -0.8328    -3.6912     4.8090 H      1 <0>       0.0700
41 H41      -0.6885    -3.2176     7.8937 H      1 <0>       0.0900
42 H42       0.3606    -4.1035     6.7657 H      1 <0>       0.1000
43 H43       1.2091    -4.1357     9.3541 H      1 <0>       0.4100
44 H44       3.5201    -2.0256     9.2786 H      1 <0>       0.0900
45 H45       1.7246    -0.0643     6.4227 H      1 <0>       0.0700
46 H46       3.0700    -1.0177     5.7609 H      1 <0>       0.0800
47 H47       1.9619    -3.7505     5.6916 H      1 <0>       0.0500
48 H48       1.0249    -3.6291     4.1831 H      1 <0>       0.0600
49 H49       2.6461    -2.9014     4.2848 H      1 <0>       0.0600
50 H50       2.7743    -0.0527     4.0357 H      1 <0>       0.0700
51 H51       2.5798    -1.5454     3.0950 H      1 <0>       0.0700
52 H52       1.3987     1.1857     2.3898 H      1 <0>       0.0600
53 H53       2.7634     0.3796     1.5685 H      1 <0>       0.0700
54 H54       1.5447    -2.4198     1.9133 H      1 <0>       0.0600
55 H55       0.5206    -2.4770     0.4586 H      1 <0>       0.0500
56 H56       2.1946    -1.8826     0.3458 H      1 <0>       0.0600
@<TRIPOS>BOND
1    1    2 1
2    1   29 1
3    1   30 1
4    1   31 1
5    2   27 1
6    2    3 1
7    2    4 1
8    3   32 1
9    4    5 1
10    4   33 1
11    4   34 1
12    5    6 1
13    5   35 1
14    5   36 1
15    6    7 1
16    6   27 1
17    6    8 1
18    8    9 1
19    8   23 1
20    8   10 1
21   10   11 1
22   10   37 1
23   10   38 1
24   11   12 1
25   11   39 1
26   11   40 1
27   12   13 1
28   12   21 1
29   12   14 1
30   14   15 1
31   14   41 1
32   14   42 1
33   15   16 1
34   15   17 2
35   16   43 1
36   17   18 1
37   17   20 1
38   18   19 2
39   18   44 1
40   20   21 1
41   20   45 1
42   20   46 1
43   21   22 1
44   21   23 1
45   22   47 1
46   22   48 1
47   22   49 1
48   23   24 1
49   23   25 1
50   25   26 1
51   25   50 1
52   25   51 1
53   26   27 1
54   26   52 1
55   26   53 1
56   27   28 1
57   28   54 1
58   28   55 1
59   28   56 1
