@<TRIPOS>MOLECULE
ZINC000003831551
18    17    1     0     0
SMALL
USER_CHARGES
@<TRIPOS>ATOM
1      C1     -0.0187    1.5258    0.0104 C.3      1 ZINC000003831551   -0.1300
2      C2      0.0021   -0.0041    0.0020 C.3      1 ZINC000003831551   -0.0700
3      H3      0.5123   -0.3556   -0.8948 H        1 ZINC000003831551    0.1400
4      S4      0.8794   -0.6050    1.4716 S.3      1 ZINC000003831551   -0.2100
5      C5     -1.4117   -0.5257    0.0127 C.2      1 ZINC000003831551    0.5000
6      O6     -2.2904    0.1150    0.5497 O.2      1 ZINC000003831551   -0.5600
7      N7     -1.6997   -1.7041   -0.5745 N.am     1 ZINC000003831551   -0.6800
8      C8     -3.0741   -2.2112   -0.5641 C.3      1 ZINC000003831551    0.0500
9      C9     -3.1263   -3.5357   -1.2812 C.2      1 ZINC000003831551    0.4900
10     O10    -2.1097   -4.0119   -1.7568 O.co2    1 ZINC000003831551   -0.6900
11     O11    -4.1852   -4.1310   -1.3856 O.co2    1 ZINC000003831551   -0.6900
12     H12     1.0039    1.9031    0.0027 H        1 ZINC000003831551    0.0800
13     H13    -0.5459    1.8868   -0.8726 H        1 ZINC000003831551    0.0700
14     H14    -0.5289    1.8773    0.9072 H        1 ZINC000003831551    0.0600
15     H15     0.1510   -0.1034    2.4850 H        1 ZINC000003831551    0.0900
16     H16    -0.9969   -2.2165   -1.0040 H        1 ZINC000003831551    0.4100
17     H17    -3.4051   -2.3425    0.4661 H        1 ZINC000003831551    0.0700
18     H18    -3.7279   -1.4993   -1.0679 H        1 ZINC000003831551    0.0700
@<TRIPOS>BOND
1     1     2     1
2     1     12    1
3     1     13    1
4     1     14    1
5     2     3     1
6     2     4     1
7     2     5     1
8     4     15    1
9     5     6     2
10    5     7     am
11    7     8     1
12    7     16    1
13    8     9     1
14    8     17    1
15    8     18    1
16    9     10    ar
17    9     11    ar
@<TRIPOS>SUBSTRUCTURE
1   ZINC000003831551 1     RESIDUE    1   A     ZIN   1
