@<TRIPOS>MOLECULE
ZINC000001531009
26    26    1     0     0
SMALL
USER_CHARGES
@<TRIPOS>ATOM
1      O1      0.0021   -0.0041    0.0020 O.2      1 ZINC000001531009   -1.0900
2      P2     -0.0189    1.5408    0.0105 P.3      1 ZINC000001531009    2.2700
3      O3      1.4306    2.0755   -0.0005 O.3      1 ZINC000001531009   -1.0800
4      O4     -0.7976    2.0741   -1.2938 O.3      1 ZINC000001531009   -0.8800
5      C5     -0.8722    2.1287    1.5104 C.3      1 ZINC000001531009   -1.0300
6      O6     -0.1810    1.6553    2.6681 O.3      1 ZINC000001531009   -0.5000
7      C7     -0.8929    3.6585    1.5188 C.3      1 ZINC000001531009   -0.0700
8      C8      0.5209    4.1801    1.5081 C.ar     1 ZINC000001531009   -0.1300
9      C9      1.1928    4.4112    2.6984 C.ar     1 ZINC000001531009   -0.0600
10     C10     2.4926    4.8909    2.6402 C.ar     1 ZINC000001531009   -0.2100
11     C11     3.0708    5.1211    1.4065 C.ar     1 ZINC000001531009    0.0900
12     N12     2.4013    4.8898    0.2940 N.ar     1 ZINC000001531009   -0.4900
13     C13     1.1661    4.4288    0.3112 C.ar     1 ZINC000001531009    0.2000
14     P14    -2.5824    1.4977    1.5233 P.3      1 ZINC000001531009    2.2400
15     O15    -3.2912    1.9040    0.2120 O.2      1 ZINC000001531009   -1.0800
16     O16    -3.3433    2.0968    2.7271 O.3      1 ZINC000001531009   -1.1000
17     O17    -2.5613   -0.1074    1.6468 O.3      1 ZINC000001531009   -0.8800
18     H18    -0.3982    1.7988   -2.1303 H        1 ZINC000001531009    0.4000
19     H19    -0.5804    1.9306    3.5046 H        1 ZINC000001531009    0.3400
20     H20    -1.4201    4.0196    0.6357 H        1 ZINC000001531009    0.0800
21     H21    -1.4031    4.0100    2.4156 H        1 ZINC000001531009    0.0700
22     H22     0.7152    4.2224    3.6485 H        1 ZINC000001531009    0.1100
23     H23     3.0459    5.0826    3.5477 H        1 ZINC000001531009    0.1100
24     H24     4.0826    5.4950    1.3526 H        1 ZINC000001531009    0.1400
25     H25     0.6495    4.2516   -0.6205 H        1 ZINC000001531009    0.1400
26     H26    -3.4393   -0.5125    1.6597 H        1 ZINC000001531009    0.4000
@<TRIPOS>BOND
1     1     2     2
2     2     3     1
3     2     4     1
4     2     5     1
5     4     18    1
6     5     6     1
7     5     7     1
8     5     14    1
9     6     19    1
10    7     8     1
11    7     20    1
12    7     21    1
13    8     13    ar
14    8     9     ar
15    9     10    ar
16    9     22    1
17    10    11    ar
18    10    23    1
19    11    12    ar
20    11    24    1
21    12    13    ar
22    13    25    1
23    14    15    2
24    14    16    1
25    14    17    1
26    17    26    1
@<TRIPOS>SUBSTRUCTURE
1   ZINC000001531009 1     RESIDUE    1   A     ZIN   1
