@<TRIPOS>MOLECULE
ZINC000000897251
57    60    1     0     0
SMALL
USER_CHARGES
@<TRIPOS>ATOM
1      C1     -0.0173    1.4248    0.0099 C.3      1 ZINC000000897251    0.0200
2      O2      0.0021   -0.0041    0.0020 O.3      1 ZINC000000897251   -0.3000
3      C3     -1.1989   -0.6368    0.0101 C.ar     1 ZINC000000897251    0.1400
4      C4     -2.3726    0.1034    0.0195 C.ar     1 ZINC000000897251   -0.1800
5      C5     -3.5981   -0.5319    0.0282 C.ar     1 ZINC000000897251   -0.0400
6      C6     -3.6626   -1.9265    0.0271 C.ar     1 ZINC000000897251   -0.1900
7      C7     -2.4715   -2.6737    0.0168 C.ar     1 ZINC000000897251   -0.1100
8      C8     -1.2526   -2.0309    0.0031 C.ar     1 ZINC000000897251    0.0800
9      O9     -0.1019   -2.7556   -0.0069 O.3      1 ZINC000000897251   -0.3000
10     C10    -0.2313   -4.1787   -0.0025 C.3      1 ZINC000000897251    0.0200
11     C11    -5.0600   -2.3810    0.0369 C.2      1 ZINC000000897251    0.4100
12     O12    -5.4328   -3.5352    0.0386 O.2      1 ZINC000000897251   -0.4400
13     C13    -5.9510   -1.1628    0.0448 C.3      1 ZINC000000897251   -0.1400
14     H14    -6.5671   -1.1514    0.9440 H        1 ZINC000000897251    0.1200
15     C15    -6.8359   -1.1451   -1.2032 C.3      1 ZINC000000897251   -0.1000
16     C16    -7.8195   -2.3157   -1.1477 C.3      1 ZINC000000897251   -0.1000
17     C17    -8.7832   -2.1191    0.0258 C.3      1 ZINC000000897251   -0.1100
18     C18    -9.8021   -3.2609    0.0396 C.3      1 ZINC000000897251    0.0600
19     N19   -10.5426   -3.2731   -1.2285 N.3      1 ZINC000000897251   -0.5300
20     C20   -11.6233   -4.2677   -1.1974 C.3      1 ZINC000000897251    0.0900
21     C21   -12.1989   -4.4274   -2.5810 C.ar     1 ZINC000000897251   -0.0800
22     C22   -13.2513   -3.6289   -2.9881 C.ar     1 ZINC000000897251   -0.1000
23     C23   -13.7794   -3.7753   -4.2572 C.ar     1 ZINC000000897251   -0.1200
24     C24   -13.2547   -4.7200   -5.1193 C.ar     1 ZINC000000897251   -0.1200
25     C25   -12.2017   -5.5179   -4.7125 C.ar     1 ZINC000000897251   -0.1200
26     C26   -11.6709   -5.3685   -3.4449 C.ar     1 ZINC000000897251   -0.1100
27     C27    -9.6440   -3.5078   -2.3659 C.3      1 ZINC000000897251    0.0500
28     C28    -8.6203   -2.3734   -2.4515 C.3      1 ZINC000000897251   -0.1100
29     C29    -4.9962    0.0389    0.0392 C.3      1 ZINC000000897251   -0.0800
30     H30     1.0053    1.8021    0.0021 H        1 ZINC000000897251    0.1100
31     H31    -0.5445    1.7859   -0.8732 H        1 ZINC000000897251    0.0600
32     H32    -0.5275    1.7763    0.9067 H        1 ZINC000000897251    0.0600
33     H33    -2.3270    1.1825    0.0205 H        1 ZINC000000897251    0.1400
34     H34    -2.5120   -3.7530    0.0162 H        1 ZINC000000897251    0.1400
35     H35    -0.7849   -4.4959   -0.8863 H        1 ZINC000000897251    0.0600
36     H36     0.7591   -4.6337   -0.0115 H        1 ZINC000000897251    0.1000
37     H37    -0.7670   -4.4921    0.8935 H        1 ZINC000000897251    0.0600
38     H38    -7.3895   -0.2070   -1.2429 H        1 ZINC000000897251    0.0800
39     H39    -6.2119   -1.2366   -2.0923 H        1 ZINC000000897251    0.0700
40     H40    -7.2695   -3.2476   -1.0164 H        1 ZINC000000897251    0.0900
41     H41    -8.2230   -2.1199    0.9608 H        1 ZINC000000897251    0.0700
42     H42    -9.3038   -1.1680   -0.0863 H        1 ZINC000000897251    0.0700
43     H43    -9.2819   -4.2104    0.1656 H        1 ZINC000000897251    0.0300
44     H44   -10.4986   -3.1161    0.8655 H        1 ZINC000000897251    0.0700
45     H45   -11.2272   -5.2241   -0.8561 H        1 ZINC000000897251    0.0400
46     H46   -12.4049   -3.9337   -0.5150 H        1 ZINC000000897251    0.0800
47     H47   -13.6612   -2.8908   -2.3145 H        1 ZINC000000897251    0.1200
48     H48   -14.6020   -3.1520   -4.5750 H        1 ZINC000000897251    0.1200
49     H49   -13.6677   -4.8349   -6.1106 H        1 ZINC000000897251    0.1200
50     H50   -11.7920   -6.2561   -5.3859 H        1 ZINC000000897251    0.1200
51     H51   -10.8482   -5.9918   -3.1270 H        1 ZINC000000897251    0.1200
52     H52    -9.1245   -4.4562   -2.2286 H        1 ZINC000000897251    0.0300
53     H53   -10.2255   -3.5425   -3.2871 H        1 ZINC000000897251    0.0800
54     H54    -9.1384   -1.4264   -2.6026 H        1 ZINC000000897251    0.0700
55     H55    -7.9437   -2.5560   -3.2864 H        1 ZINC000000897251    0.0600
56     H56    -5.1477    0.6417    0.9346 H        1 ZINC000000897251    0.0900
57     H57    -5.1608    0.6438   -0.8525 H        1 ZINC000000897251    0.1000
@<TRIPOS>BOND
1     1     2     1
2     1     30    1
3     1     31    1
4     1     32    1
5     2     3     1
6     3     8     ar
7     3     4     ar
8     4     5     ar
9     4     33    1
10    5     29    1
11    5     6     ar
12    6     7     ar
13    6     11    1
14    7     8     ar
15    7     34    1
16    8     9     1
17    9     10    1
18    10    35    1
19    10    36    1
20    10    37    1
21    11    12    2
22    11    13    1
23    13    14    1
24    13    15    1
25    13    29    1
26    15    16    1
27    15    38    1
28    15    39    1
29    16    28    1
30    16    17    1
31    16    40    1
32    17    18    1
33    17    41    1
34    17    42    1
35    18    19    1
36    18    43    1
37    18    44    1
38    19    20    1
39    19    27    1
40    20    21    1
41    20    45    1
42    20    46    1
43    21    26    ar
44    21    22    ar
45    22    23    ar
46    22    47    1
47    23    24    ar
48    23    48    1
49    24    25    ar
50    24    49    1
51    25    26    ar
52    25    50    1
53    26    51    1
54    27    28    1
55    27    52    1
56    27    53    1
57    28    54    1
58    28    55    1
59    29    56    1
60    29    57    1
@<TRIPOS>SUBSTRUCTURE
1   ZINC000000897251 1     RESIDUE    1   A     ZIN   1
