@<TRIPOS>MOLECULE
ZINC000002847375
34    34    1     0     0
SMALL
USER_CHARGES
@<TRIPOS>ATOM
1      C1      0.3670    1.4646   -2.5582 C.3      1 ZINC000002847375   -0.1500
2      C2     -0.1390    0.0237   -2.4654 C.3      1 ZINC000002847375    0.0400
3      N3      0.4882   -0.6425   -1.3161 N.3      1 ZINC000002847375   -0.5200
4      C4      0.0495   -0.0360   -0.0522 C.3      1 ZINC000002847375    0.0400
5      C5     -1.4501   -0.2752    0.1348 C.3      1 ZINC000002847375   -0.2000
6      C6      0.2145   -2.0857   -1.3304 C.3      1 ZINC000002847375    0.0400
7      H7     -0.8620   -2.2510   -1.3742 H        1 ZINC000002847375    0.0700
8      C8      0.7772   -2.7242   -0.0589 C.3      1 ZINC000002847375   -0.1500
9      C9      0.8679   -2.7090   -2.5370 C.2      1 ZINC000002847375    0.4000
10     O10     1.8035   -2.1551   -3.0737 O.2      1 ZINC000002847375   -0.4300
11     C11     0.3703   -3.9899   -3.0638 C.ar     1 ZINC000002847375   -0.1700
12     C12    -0.7123   -4.6289   -2.4511 C.ar     1 ZINC000002847375   -0.0800
13     C13    -1.1727   -5.8288   -2.9506 C.ar     1 ZINC000002847375   -0.1300
14     C14    -0.5660   -6.4011   -4.0552 C.ar     1 ZINC000002847375   -0.0900
15     C15     0.5059   -5.7749   -4.6672 C.ar     1 ZINC000002847375   -0.1300
16     C16     0.9739   -4.5715   -4.1833 C.ar     1 ZINC000002847375   -0.0600
17     H17     0.1104    1.9994   -1.6437 H        1 ZINC000002847375    0.0600
18     H18     1.4495    1.4620   -2.6860 H        1 ZINC000002847375    0.0700
19     H19    -0.0984    1.9589   -3.4109 H        1 ZINC000002847375    0.0600
20     H20    -1.2214    0.0262   -2.3376 H        1 ZINC000002847375    0.0400
21     H21     0.1176   -0.5111   -3.3799 H        1 ZINC000002847375    0.0700
22     H22     0.5955   -0.4873    0.7762 H        1 ZINC000002847375    0.0800
23     H23     0.2462    1.0359   -0.0760 H        1 ZINC000002847375    0.0800
24     H24    -1.6470   -1.3471    0.1572 H        1 ZINC000002847375    0.0600
25     H25    -1.7753    0.1736    1.0734 H        1 ZINC000002847375    0.0600
26     H26    -1.9962    0.1773   -0.6928 H        1 ZINC000002847375    0.0600
27     H27     0.3047   -2.2733    0.8137 H        1 ZINC000002847375    0.0700
28     H28     0.5741   -3.7950   -0.0696 H        1 ZINC000002847375    0.0700
29     H29     1.8537   -2.5589   -0.0152 H        1 ZINC000002847375    0.0700
30     H30    -1.1863   -4.1839   -1.5887 H        1 ZINC000002847375    0.1300
31     H31    -2.0086   -6.3236   -2.4786 H        1 ZINC000002847375    0.1300
32     H32    -0.9307   -7.3414   -4.4414 H        1 ZINC000002847375    0.1300
33     H33     0.9740   -6.2277   -5.5287 H        1 ZINC000002847375    0.1300
34     H34     1.8104   -4.0840   -4.6619 H        1 ZINC000002847375    0.1300
@<TRIPOS>BOND
1     1     2     1
2     1     17    1
3     1     18    1
4     1     19    1
5     2     3     1
6     2     20    1
7     2     21    1
8     3     4     1
9     3     6     1
10    4     5     1
11    4     22    1
12    4     23    1
13    5     24    1
14    5     25    1
15    5     26    1
16    6     7     1
17    6     8     1
18    6     9     1
19    8     27    1
20    8     28    1
21    8     29    1
22    9     10    2
23    9     11    1
24    11    16    ar
25    11    12    ar
26    12    13    ar
27    12    30    1
28    13    14    ar
29    13    31    1
30    14    15    ar
31    14    32    1
32    15    16    ar
33    15    33    1
34    16    34    1
@<TRIPOS>SUBSTRUCTURE
1   ZINC000002847375 1     RESIDUE    1   A     ZIN   1
