@<TRIPOS>MOLECULE
ZINC000005029557
62   65    0    0    0
SMALL
USER_CHARGES
NO_NAME
@<TRIPOS>ATOM
1 C1       -0.4054     1.6025     0.3363 C.3    1 <0>      -0.1500
2 C2       -0.2114     0.1088     0.2870 C.2    1 <0>       0.4500
3 O3        0.8868    -0.3638     0.4613 O.2    1 <0>      -0.5000
4 O4       -1.2587    -0.6965     0.0496 O.3    1 <0>      -0.3300
5 C5       -0.9802    -2.1138    -0.0985 C.3    1 <0>       0.0900
6 C6       -0.4121    -2.6701     1.1817 C.2    1 <0>       0.3600
7 C7       -0.8611    -2.1153     2.5089 C.3    1 <0>      -0.2100
8 O8        0.4029    -3.5604     1.1439 O.2    1 <0>      -0.4400
9 C9        0.0046    -2.3475    -1.2712 C.3    1 <0>      -0.1300
10 C10      -0.7737    -3.1610    -2.3412 C.3    1 <0>      -0.1200
11 C11      -2.2362    -2.8198    -2.0347 C.3    1 <0>      -0.0800
12 H12      -2.4739    -1.8167    -2.3889 H      1 <0>       0.0800
13 C13      -3.2656    -3.8148    -2.5388 C.3    1 <0>      -0.0800
14 H14      -3.0540    -4.8057    -2.1370 H      1 <0>       0.0900
15 C15      -3.2402    -3.8545    -4.0696 C.3    1 <0>      -0.1100
16 C16      -4.2318    -4.9115    -4.5606 C.3    1 <0>      -0.0700
17 H17      -3.9071    -5.8983    -4.2307 H      1 <0>       0.0900
18 C18      -4.3014    -4.8788    -6.0887 C.3    1 <0>      -0.1500
19 C19      -5.6000    -4.6054    -3.9794 C.2    1 <0>      -0.0100
20 C20      -6.6401    -4.6014    -4.8129 C.2    1 <0>      -0.2500
21 C21      -7.9881    -4.3266    -4.3038 C.2    1 <0>       0.3900
22 O22      -8.8793    -3.9415    -5.0315 O.2    1 <0>      -0.4600
23 C23      -8.2091    -4.5495    -2.8205 C.3    1 <0>      -0.1700
24 C24      -7.0811    -3.8348    -2.0777 C.3    1 <0>      -0.1000
25 C25      -5.7154    -4.3384    -2.5104 C.3    1 <0>      -0.0300
26 C26      -5.4363    -5.6468    -1.7680 C.3    1 <0>      -0.1500
27 C27      -4.6445    -3.3377    -2.0605 C.3    1 <0>      -0.0700
28 H28      -4.8454    -2.3716    -2.5235 H      1 <0>       0.0700
29 C29      -4.7096    -3.1847    -0.5437 C.3    1 <0>      -0.1200
30 C30      -3.5809    -2.2866    -0.0135 C.3    1 <0>      -0.1000
31 C31      -2.2509    -2.8648    -0.4831 C.3    1 <0>      -0.0400
32 C32      -2.1454    -4.3317    -0.0613 C.3    1 <0>      -0.1600
33 H33       0.5500     2.0865     0.5387 H      1 <0>       0.1000
34 H34      -0.7933     1.9503    -0.6212 H      1 <0>       0.1000
35 H35      -1.1133     1.8510     1.1270 H      1 <0>       0.1000
36 H36      -1.5308    -1.2716     2.3423 H      1 <0>       0.0800
37 H37      -1.3852    -2.8903     3.0682 H      1 <0>       0.1000
38 H38       0.0081    -1.7826     3.0764 H      1 <0>       0.0900
39 H39       0.3245    -1.3922    -1.6871 H      1 <0>       0.0800
40 H40       0.8694    -2.9143    -0.9262 H      1 <0>       0.0900
41 H41      -0.5038    -2.8345    -3.3455 H      1 <0>       0.0700
42 H42      -0.5933    -4.2291    -2.2202 H      1 <0>       0.0800
43 H43      -3.5230    -2.8786    -4.4641 H      1 <0>       0.0700
44 H44      -2.2369    -4.1098    -4.4108 H      1 <0>       0.0700
45 H45      -3.3146    -5.0880    -6.5019 H      1 <0>       0.0600
46 H46      -5.0081    -5.6323    -6.4364 H      1 <0>       0.0600
47 H47      -4.6309    -3.8929    -6.4164 H      1 <0>       0.0600
48 H48      -6.4903    -4.8002    -5.8638 H      1 <0>       0.1400
49 H49      -9.1712    -4.1329    -2.5225 H      1 <0>       0.0900
50 H50      -8.1815    -5.6162    -2.5981 H      1 <0>       0.1000
51 H51      -7.1452    -2.7653    -2.2785 H      1 <0>       0.0700
52 H52      -7.1989    -4.0018    -1.0071 H      1 <0>       0.0800
53 H53      -6.1231    -6.4172    -2.1188 H      1 <0>       0.0600
54 H54      -4.4101    -5.9609    -1.9585 H      1 <0>       0.0600
55 H55      -5.5770    -5.4946    -0.6979 H      1 <0>       0.0700
56 H56      -5.6698    -2.7467    -0.2715 H      1 <0>       0.0700
57 H57      -4.6263    -4.1692    -0.0833 H      1 <0>       0.0700
58 H58      -3.6773    -1.2840    -0.4304 H      1 <0>       0.0700
59 H59      -3.6214    -2.2427     1.0748 H      1 <0>       0.0700
60 H60      -3.0170    -4.8773    -0.4228 H      1 <0>       0.0800
61 H61      -1.2416    -4.7679    -0.4866 H      1 <0>       0.0700
62 H62      -2.1024    -4.3949     1.0260 H      1 <0>       0.0500
@<TRIPOS>BOND
1    1    2 1
2    1   33 1
3    1   34 1
4    1   35 1
5    2    3 2
6    2    4 1
7    4    5 1
8    5   31 1
9    5    6 1
10    5    9 1
11    6    7 1
12    6    8 2
13    7   36 1
14    7   37 1
15    7   38 1
16    9   10 1
17    9   39 1
18    9   40 1
19   10   11 1
20   10   41 1
21   10   42 1
22   11   12 1
23   11   31 1
24   11   13 1
25   13   14 1
26   13   27 1
27   13   15 1
28   15   16 1
29   15   43 1
30   15   44 1
31   16   17 1
32   16   18 1
33   16   19 1
34   18   45 1
35   18   46 1
36   18   47 1
37   19   25 1
38   19   20 2
39   20   21 1
40   20   48 1
41   21   22 2
42   21   23 1
43   23   24 1
44   23   49 1
45   23   50 1
46   24   25 1
47   24   51 1
48   24   52 1
49   25   26 1
50   25   27 1
51   26   53 1
52   26   54 1
53   26   55 1
54   27   28 1
55   27   29 1
56   29   30 1
57   29   56 1
58   29   57 1
59   30   31 1
60   30   58 1
61   30   59 1
62   31   32 1
63   32   60 1
64   32   61 1
65   32   62 1
