@<TRIPOS>MOLECULE
ZINC000000608382
55   58    0    0    0
SMALL
USER_CHARGES
NO_NAME
@<TRIPOS>ATOM
1 C1        0.0010     1.4816     0.3464 C.3    1 <0>      -0.1000
2 C2        0.0114    -0.0142     0.1634 C.2    1 <0>      -0.2600
3 C3       -1.1584    -0.7057     0.1061 C.2    1 <0>       0.1900
4 C4       -2.4289     0.0371     0.2260 C.ar   1 <0>      -0.0700
5 C5       -2.6852     1.1278    -0.6079 C.ar   1 <0>      -0.0800
6 C6       -3.8743     1.8169    -0.4907 C.ar   1 <0>      -0.1200
7 C7       -4.8120     1.4301     0.4505 C.ar   1 <0>      -0.0900
8 C8       -4.5647     0.3504     1.2799 C.ar   1 <0>      -0.1200
9 C9       -3.3823    -0.3513     1.1698 C.ar   1 <0>      -0.0800
10 O10      -1.2021    -2.0372    -0.0556 O.3    1 <0>      -0.1900
11 C11      -0.0891    -2.7859    -0.1730 C.ar   1 <0>       0.2100
12 C12      -0.1709    -4.1766    -0.3416 C.ar   1 <0>      -0.1600
13 C13      -1.4858    -4.8414    -0.3928 C.2    1 <0>       0.5200
14 O14      -2.5029    -4.1849    -0.2889 O.2    1 <0>      -0.4700
15 O15      -1.5595    -6.1771    -0.5548 O.3    1 <0>      -0.3700
16 C16      -2.8871    -6.7638    -0.5961 C.3    1 <0>       0.0300
17 C17      -2.7700    -8.2776    -0.7844 C.3    1 <0>       0.0000
18 N18      -2.1204    -8.8687     0.3932 N.4    1 <0>      -0.3900
19 H19      -1.2344    -8.4127     0.5516 H      1 <0>       0.4300
20 C20      -1.8973   -10.3006     0.1599 C.3    1 <0>      -0.0100
21 C21      -1.1482   -10.9044     1.3497 C.3    1 <0>      -0.1500
22 C22      -1.9828   -10.7165     2.6199 C.3    1 <0>      -0.1400
23 C23      -2.2723    -9.2251     2.8127 C.3    1 <0>      -0.1500
24 C24      -2.9805    -8.6851     1.5683 C.3    1 <0>      -0.0200
25 C25       0.9999    -4.9262    -0.4609 C.ar   1 <0>       0.0000
26 C26       2.2358    -4.3091    -0.4142 C.ar   1 <0>      -0.1600
27 C27       2.3303    -2.9416    -0.2488 C.ar   1 <0>       0.0200
28 C28       1.1729    -2.1746    -0.1277 C.ar   1 <0>      -0.2300
29 C29       1.2380    -0.7093     0.0439 C.2    1 <0>       0.4300
30 O30       2.3064    -0.1222     0.0853 O.2    1 <0>      -0.4500
31 H31       1.0242     1.8416     0.4543 H      1 <0>       0.0800
32 H32      -0.4595     1.9509    -0.5230 H      1 <0>       0.0800
33 H33      -0.5693     1.7343     1.2403 H      1 <0>       0.0700
34 H34      -1.9539     1.4312    -1.3424 H      1 <0>       0.1300
35 H35      -4.0739     2.6605    -1.1349 H      1 <0>       0.1400
36 H36      -5.7412     1.9736     0.5384 H      1 <0>       0.1300
37 H37      -5.3008     0.0541     2.0126 H      1 <0>       0.1300
38 H38      -3.1907    -1.1940     1.8175 H      1 <0>       0.1300
39 H39      -3.4067    -6.5530     0.3385 H      1 <0>       0.1000
40 H40      -3.4474    -6.3365    -1.4278 H      1 <0>       0.1200
41 H41      -3.7647    -8.7068    -0.9044 H      1 <0>       0.1500
42 H42      -2.1739    -8.4883    -1.6723 H      1 <0>       0.1500
43 H43      -2.8575   -10.8031     0.0426 H      1 <0>       0.1300
44 H44      -1.3060   -10.4328    -0.7462 H      1 <0>       0.1300
45 H45      -0.9852   -11.9680     1.1754 H      1 <0>       0.1100
46 H46      -0.1877   -10.4028     1.4677 H      1 <0>       0.0900
47 H47      -2.9222   -11.2606     2.5226 H      1 <0>       0.0800
48 H48      -1.4287   -11.0943     3.4793 H      1 <0>       0.0900
49 H49      -2.9126    -9.0883     3.6841 H      1 <0>       0.1100
50 H50      -1.3351    -8.6886     2.9611 H      1 <0>       0.0900
51 H51      -3.1887    -7.6234     1.7013 H      1 <0>       0.1300
52 H52      -3.9174    -9.2226     1.4220 H      1 <0>       0.1300
53 H53       0.9399    -5.9968    -0.5903 H      1 <0>       0.1500
54 H54       3.1344    -4.9010    -0.5074 H      1 <0>       0.1500
55 H55       3.2997    -2.4668    -0.2136 H      1 <0>       0.1600
@<TRIPOS>BOND
1    1    2 1
2    1   31 1
3    1   32 1
4    1   33 1
5    2   29 1
6    2    3 2
7    3    4 1
8    3   10 1
9    4    9 ar
10    4    5 ar
11    5    6 ar
12    5   34 1
13    6    7 ar
14    6   35 1
15    7    8 ar
16    7   36 1
17    8    9 ar
18    8   37 1
19    9   38 1
20   10   11 1
21   11   28 ar
22   11   12 ar
23   12   13 1
24   12   25 ar
25   13   14 2
26   13   15 1
27   15   16 1
28   16   17 1
29   16   39 1
30   16   40 1
31   17   18 1
32   17   41 1
33   17   42 1
34   18   19 1
35   18   24 1
36   18   20 1
37   20   21 1
38   20   43 1
39   20   44 1
40   21   22 1
41   21   45 1
42   21   46 1
43   22   23 1
44   22   47 1
45   22   48 1
46   23   24 1
47   23   49 1
48   23   50 1
49   24   51 1
50   24   52 1
51   25   26 ar
52   25   53 1
53   26   27 ar
54   26   54 1
55   27   28 ar
56   27   55 1
57   28   29 1
58   29   30 2
