@<TRIPOS>MOLECULE
ZINC000001530751
57    58    1     0     0
SMALL
USER_CHARGES
@<TRIPOS>ATOM
1      C1     -2.5622   -1.5677   -1.2381 C.3      1 ZINC000001530751   -0.2000
2      C2     -1.2430   -0.8653   -0.9103 C.3      1 ZINC000001530751    0.0500
3      N3     -0.2366   -1.2173   -1.9208 N.3      1 ZINC000001530751   -0.5400
4      C4     -0.0340   -2.6712   -1.9778 C.3      1 ZINC000001530751    0.0400
5      C5      0.5856   -3.1517   -0.6640 C.3      1 ZINC000001530751   -0.1500
6      C6     -0.6057   -0.6851   -3.2393 C.3      1 ZINC000001530751    0.1600
7      C7     -0.3954    0.7717   -3.2568 C.1      1 ZINC000001530751   -0.1200
8      C8     -0.2277    1.9336   -3.2707 C.1      1 ZINC000001530751   -0.1900
9      C9     -0.0175    3.3904   -3.2882 C.3      1 ZINC000001530751    0.1800
10     O10    -0.3824    3.9164   -4.5915 O.3      1 ZINC000001530751   -0.3400
11     C11    -0.2480    5.2395   -4.7740 C.2      1 ZINC000001530751    0.4400
12     O12     0.1609    5.9349   -3.8745 O.2      1 ZINC000001530751   -0.4900
13     C13    -0.6073    5.8574   -6.1007 C.3      1 ZINC000001530751    0.2000
14     O14    -1.7247    5.1654   -6.6614 O.3      1 ZINC000001530751   -0.5200
15     C15    -0.9640    7.3076   -5.8992 C.ar     1 ZINC000001530751   -0.1200
16     C16     0.0110    8.2138   -5.5261 C.ar     1 ZINC000001530751   -0.0800
17     C17    -0.3162    9.5441   -5.3414 C.ar     1 ZINC000001530751   -0.1200
18     C18    -1.6183    9.9683   -5.5301 C.ar     1 ZINC000001530751   -0.1100
19     C19    -2.5931    9.0623   -5.9040 C.ar     1 ZINC000001530751   -0.1200
20     C20    -2.2650    7.7328   -6.0930 C.ar     1 ZINC000001530751   -0.1000
21     C21     0.5867    5.7532   -7.0518 C.3      1 ZINC000001530751   -0.0700
22     C22     0.9162    4.2794   -7.2972 C.3      1 ZINC000001530751   -0.1100
23     C23     2.1101    4.1752   -8.2483 C.3      1 ZINC000001530751   -0.1200
24     C24     1.7634    4.8485   -9.5777 C.3      1 ZINC000001530751   -0.1200
25     C25     1.4339    6.3223   -9.3323 C.3      1 ZINC000001530751   -0.1200
26     C26     0.2400    6.4265   -8.3812 C.3      1 ZINC000001530751   -0.1100
27     H27    -2.8984   -1.2649   -2.2298 H        1 ZINC000001530751    0.0600
28     H28    -2.4135   -2.6473   -1.2188 H        1 ZINC000001530751    0.0600
29     H29    -3.3144   -1.2912   -0.4993 H        1 ZINC000001530751    0.0600
30     H30    -1.3962    0.2139   -0.9107 H        1 ZINC000001530751    0.0800
31     H31    -0.8970   -1.1828    0.0733 H        1 ZINC000001530751    0.0800
32     H32    -0.9933   -3.1660   -2.1295 H        1 ZINC000001530751    0.0400
33     H33     0.6342   -2.9128   -2.8044 H        1 ZINC000001530751    0.0800
34     H34    -0.0825   -2.9101    0.1626 H        1 ZINC000001530751    0.0600
35     H35     0.7359   -4.2305   -0.7063 H        1 ZINC000001530751    0.0600
36     H36     1.5449   -2.6569   -0.5123 H        1 ZINC000001530751    0.0600
37     H37     0.0139   -1.1509   -4.0056 H        1 ZINC000001530751    0.1000
38     H38    -1.6549   -0.9032   -3.4384 H        1 ZINC000001530751    0.0700
39     H39    -0.6371    3.8561   -2.5219 H        1 ZINC000001530751    0.1000
40     H40     1.0318    3.6084   -3.0891 H        1 ZINC000001530751    0.1000
41     H41    -2.5193    5.1900   -6.1108 H        1 ZINC000001530751    0.3800
42     H42     1.0282    7.8824   -5.3787 H        1 ZINC000001530751    0.1200
43     H43     0.4453   10.2520   -5.0492 H        1 ZINC000001530751    0.1300
44     H44    -1.8741   11.0075   -5.3850 H        1 ZINC000001530751    0.1200
45     H45    -3.6104    9.3936   -6.0511 H        1 ZINC000001530751    0.1300
46     H46    -3.0265    7.0249   -6.3852 H        1 ZINC000001530751    0.1300
47     H47     1.4495    6.2493   -6.6074 H        1 ZINC000001530751    0.0900
48     H48     1.1632    3.7997   -6.3501 H        1 ZINC000001530751    0.0600
49     H49     0.0533    3.7833   -7.7415 H        1 ZINC000001530751    0.0800
50     H50     2.9730    4.6713   -7.8039 H        1 ZINC000001530751    0.0600
51     H51     2.3448    3.1253   -8.4231 H        1 ZINC000001530751    0.0600
52     H52     2.6140    4.7743  -10.2553 H        1 ZINC000001530751    0.0600
53     H53     0.9005    4.3524  -10.0220 H        1 ZINC000001530751    0.0600
54     H54     2.2968    6.8184   -8.8879 H        1 ZINC000001530751    0.0600
55     H55     1.1869    6.8020  -10.2794 H        1 ZINC000001530751    0.0600
56     H56    -0.6229    5.9304   -8.8255 H        1 ZINC000001530751    0.0800
57     H57     0.0052    7.4765   -8.2063 H        1 ZINC000001530751    0.0700
@<TRIPOS>BOND
1     1     2     1
2     1     27    1
3     1     28    1
4     1     29    1
5     2     3     1
6     2     30    1
7     2     31    1
8     3     4     1
9     3     6     1
10    4     5     1
11    4     32    1
12    4     33    1
13    5     34    1
14    5     35    1
15    5     36    1
16    6     7     1
17    6     37    1
18    6     38    1
19    7     8     3
20    8     9     1
21    9     10    1
22    9     39    1
23    9     40    1
24    10    11    1
25    11    12    2
26    11    13    1
27    13    14    1
28    13    15    1
29    13    21    1
30    14    41    1
31    15    20    ar
32    15    16    ar
33    16    17    ar
34    16    42    1
35    17    18    ar
36    17    43    1
37    18    19    ar
38    18    44    1
39    19    20    ar
40    19    45    1
41    20    46    1
42    21    26    1
43    21    22    1
44    21    47    1
45    22    23    1
46    22    48    1
47    22    49    1
48    23    24    1
49    23    50    1
50    23    51    1
51    24    25    1
52    24    52    1
53    24    53    1
54    25    26    1
55    25    54    1
56    25    55    1
57    26    56    1
58    26    57    1
@<TRIPOS>SUBSTRUCTURE
1   ZINC000001530751 1     RESIDUE    1   A     ZIN   1
