@<TRIPOS>MOLECULE
ZINC000004228257
31   32    0    0    0
SMALL
USER_CHARGES
NO_NAME
@<TRIPOS>ATOM
1 C1       -0.0187     1.5258     0.0104 C.3    1 <0>      -0.1800
2 C2        0.0021    -0.0041     0.0020 C.3    1 <0>       0.0800
3 H3       -1.0205    -0.3814     0.0098 H      1 <0>       0.1100
4 O4        0.6932    -0.4774     1.1597 O.3    1 <0>      -0.5600
5 C5        0.7182    -0.4975    -1.2568 C.3    1 <0>       0.0700
6 H6        0.1430    -0.2121    -2.1375 H      1 <0>       0.1100
7 O7        2.0188     0.0904    -1.3262 O.3    1 <0>      -0.5600
8 C8        0.8493    -2.0210    -1.2049 C.3    1 <0>       0.1300
9 H9        1.4240    -2.3114    -0.3255 H      1 <0>       0.0800
10 C10       1.5522    -2.5248    -2.4739 C.3    1 <0>       0.1300
11 N11       0.7061    -2.2006    -3.6314 N.pl3  1 <0>      -0.7300
12 C12      -0.6537    -2.4610    -3.5653 C.2    1 <0>       0.3900
13 C13      -1.2574    -2.6760    -2.3343 C.2    1 <0>      -0.1600
14 N14      -0.4879    -2.6336    -1.1498 N.pl3  1 <0>      -0.7300
15 C15      -2.6314    -2.9342    -2.2866 C.2    1 <0>       0.5200
16 O16      -3.1939    -3.1265    -1.2193 O.2    1 <0>      -0.6400
17 N17      -3.3225    -2.9657    -3.4469 N.pl3  1 <0>      -0.7100
18 C18      -2.6837    -2.7504    -4.6292 C.2    1 <0>       0.5800
19 N19      -3.4046    -2.7885    -5.7959 N.pl3  1 <0>      -0.8400
20 N20      -1.3916    -2.5067    -4.6809 N.2    1 <0>      -0.6800
21 H21       1.0039     1.9031     0.0027 H      1 <0>       0.0600
22 H22      -0.5459     1.8868    -0.8726 H      1 <0>       0.0600
23 H23      -0.5289     1.8773     0.9072 H      1 <0>       0.0600
24 H24       1.6114    -0.1800     1.2187 H      1 <0>       0.3600
25 H25       2.5870    -0.1217    -0.5731 H      1 <0>       0.3600
26 H26       2.5198    -2.0337    -2.5773 H      1 <0>       0.0800
27 H27       1.6923    -3.6040    -2.4122 H      1 <0>       0.0500
28 H28       1.0938    -1.8097    -4.4299 H      1 <0>       0.3900
29 H29      -0.8330    -2.9999    -0.3206 H      1 <0>       0.3900
30 H30      -4.3577    -2.9672    -5.7715 H      1 <0>       0.4000
31 H31      -2.9612    -2.6367    -6.6452 H      1 <0>       0.3900
@<TRIPOS>BOND
1    1    2 1
2    1   21 1
3    1   22 1
4    1   23 1
5    2    3 1
6    2    4 1
7    2    5 1
8    4   24 1
9    5    6 1
10    5    7 1
11    5    8 1
12    7   25 1
13    8    9 1
14    8   14 1
15    8   10 1
16   10   11 1
17   10   26 1
18   10   27 1
19   11   12 1
20   11   28 1
21   12   20 1
22   12   13 2
23   13   14 1
24   13   15 1
25   14   29 1
26   15   16 2
27   15   17 1
28   17   18 1
29   18   19 1
30   18   20 2
31   19   30 1
32   19   31 1
