@<TRIPOS>MOLECULE
ZINC000000001148
43    45    1     0     0
SMALL
USER_CHARGES
@<TRIPOS>ATOM
1      C1     -0.0178    1.4648    0.0101 C.3      1 ZINC000000001148   -0.0600
2      N2      0.0021   -0.0041    0.0020 N.4      1 ZINC000000001148   -0.3900
3      H3      0.4744   -0.3295   -0.8281 H        1 ZINC000000001148    0.4300
4      C4      0.7126   -0.4907    1.1921 C.3      1 ZINC000000001148   -0.0500
5      C5     -1.3761   -0.5125    0.0124 C.3      1 ZINC000000001148   -0.0100
6      C6     -2.0780   -0.1101   -1.2861 C.3      1 ZINC000000001148   -0.1200
7      C7     -3.4918   -0.6317   -1.2754 C.2      1 ZINC000000001148   -0.1600
8      C8     -4.5167    0.2088   -1.4624 C.2      1 ZINC000000001148    0.0000
9      C9     -5.9028   -0.3142   -1.4439 C.ar     1 ZINC000000001148   -0.0500
10     C10    -6.2031   -1.2522   -0.4451 C.ar     1 ZINC000000001148   -0.1100
11     C11    -7.4628   -1.7975   -0.3483 C.ar     1 ZINC000000001148   -0.1100
12     C12    -8.4407   -1.4131   -1.2481 C.ar     1 ZINC000000001148   -0.1000
13     C13    -8.1508   -0.4917   -2.2295 C.ar     1 ZINC000000001148   -0.1200
14     C14    -6.8798    0.0725   -2.3433 C.ar     1 ZINC000000001148   -0.1000
15     C15    -6.7212    1.0669   -3.4628 C.3      1 ZINC000000001148    0.1200
16     O16    -5.3952    1.4377   -3.7421 O.3      1 ZINC000000001148   -0.3200
17     C17    -4.6944    2.1983   -2.8774 C.ar     1 ZINC000000001148    0.1200
18     C18    -4.4161    3.5279   -3.1613 C.ar     1 ZINC000000001148   -0.1200
19     C19    -3.7156    4.2903   -2.2442 C.ar     1 ZINC000000001148   -0.0900
20     C20    -3.2910    3.7420   -1.0470 C.ar     1 ZINC000000001148   -0.1300
21     C21    -3.5548    2.4149   -0.7588 C.ar     1 ZINC000000001148   -0.1000
22     C22    -4.2495    1.6490   -1.6789 C.ar     1 ZINC000000001148   -0.0900
23     H23     1.0047    1.8421    0.0024 H        1 ZINC000000001148    0.1300
24     H24    -0.5450    1.8259   -0.8730 H        1 ZINC000000001148    0.1200
25     H25    -0.5280    1.8163    0.9069 H        1 ZINC000000001148    0.1200
26     H26     0.2024   -0.1392    2.0889 H        1 ZINC000000001148    0.1200
27     H27     0.7273   -1.5806    1.1861 H        1 ZINC000000001148    0.1200
28     H28     1.7352   -0.1134    1.1844 H        1 ZINC000000001148    0.1200
29     H29    -1.3618   -1.5992    0.0960 H        1 ZINC000000001148    0.1300
30     H30    -1.9129   -0.0898    0.8617 H        1 ZINC000000001148    0.1300
31     H31    -2.0923    0.9766   -1.3697 H        1 ZINC000000001148    0.1000
32     H32    -1.5412   -0.5328   -2.1354 H        1 ZINC000000001148    0.1000
33     H33    -3.6781   -1.6837   -1.1169 H        1 ZINC000000001148    0.1300
34     H34    -5.4370   -1.5500    0.2555 H        1 ZINC000000001148    0.1200
35     H35    -7.6860   -2.5196    0.4232 H        1 ZINC000000001148    0.1300
36     H36    -9.4320   -1.8363   -1.1811 H        1 ZINC000000001148    0.1300
37     H37    -8.9230   -0.2003   -2.9261 H        1 ZINC000000001148    0.1300
38     H38    -7.1565    0.6400   -4.3663 H        1 ZINC000000001148    0.1200
39     H39    -7.2828    1.9654   -3.2069 H        1 ZINC000000001148    0.0700
40     H40    -4.7441    3.9645   -4.0930 H        1 ZINC000000001148    0.1400
41     H41    -3.4975    5.3247   -2.4652 H        1 ZINC000000001148    0.1300
42     H42    -2.7523    4.3511   -0.3362 H        1 ZINC000000001148    0.1300
43     H43    -3.2254    1.9817    0.1741 H        1 ZINC000000001148    0.1200
@<TRIPOS>BOND
1     1     2     1
2     1     23    1
3     1     24    1
4     1     25    1
5     2     3     1
6     2     4     1
7     2     5     1
8     4     26    1
9     4     27    1
10    4     28    1
11    5     6     1
12    5     29    1
13    5     30    1
14    6     7     1
15    6     31    1
16    6     32    1
17    7     8     2
18    7     33    1
19    8     22    1
20    8     9     1
21    9     14    ar
22    9     10    ar
23    10    11    ar
24    10    34    1
25    11    12    ar
26    11    35    1
27    12    13    ar
28    12    36    1
29    13    14    ar
30    13    37    1
31    14    15    1
32    15    16    1
33    15    38    1
34    15    39    1
35    16    17    1
36    17    22    ar
37    17    18    ar
38    18    19    ar
39    18    40    1
40    19    20    ar
41    19    41    1
42    20    21    ar
43    20    42    1
44    21    22    ar
45    21    43    1
@<TRIPOS>SUBSTRUCTURE
1   ZINC000000001148 1     RESIDUE    1   A     ZIN   1
