@<TRIPOS>MOLECULE
ZINC000003951740
94    97    1     0     0
SMALL
USER_CHARGES
@<TRIPOS>ATOM
1      C1     -0.7338    1.3693    0.9505 C.3      1 ZINC000003951740   -0.1200
2      C2     -0.7081   -0.1363    1.0115 C.ar     1 ZINC000003951740   -0.0900
3      C3     -0.8931   -0.8780   -0.1391 C.ar     1 ZINC000003951740   -0.1200
4      C4     -0.8693   -2.2594   -0.0838 C.ar     1 ZINC000003951740   -0.1100
5      C5     -0.6603   -2.9018    1.1225 C.ar     1 ZINC000003951740   -0.1200
6      C6     -0.4748   -2.1646    2.2760 C.ar     1 ZINC000003951740   -0.0900
7      C7     -0.2470   -2.8655    3.5905 C.3      1 ZINC000003951740   -0.1200
8      C8     -0.4930   -0.7784    2.2223 C.ar     1 ZINC000003951740    0.0900
9      O9     -0.3107   -0.0509    3.3556 O.3      1 ZINC000003951740   -0.3000
10     C10     1.0325    0.3049    3.6891 C.3      1 ZINC000003951740    0.0500
11     C11     1.0381    1.1033    4.9672 C.2      1 ZINC000003951740    0.5200
12     O12    -0.0055    1.3440    5.5364 O.2      1 ZINC000003951740   -0.4800
13     N13     2.2027    1.5500    5.4776 N.am     1 ZINC000003951740   -0.7300
14     C14     2.2082    2.3262    6.7201 C.3      1 ZINC000003951740    0.1200
15     H15     1.3166    2.9519    6.7615 H        1 ZINC000003951740    0.1000
16     C16     2.2183    1.3730    7.9169 C.3      1 ZINC000003951740   -0.0900
17     C17     0.9329    0.5867    7.9437 C.ar     1 ZINC000003951740   -0.0700
18     C18    -0.1625    1.0760    8.6303 C.ar     1 ZINC000003951740   -0.1100
19     C19    -1.3415    0.3547    8.6549 C.ar     1 ZINC000003951740   -0.1100
20     C20    -1.4252   -0.8557    7.9924 C.ar     1 ZINC000003951740   -0.1200
21     C21    -0.3300   -1.3446    7.3050 C.ar     1 ZINC000003951740   -0.1100
22     C22     0.8476   -0.6212    7.2769 C.ar     1 ZINC000003951740   -0.1100
23     C23     3.4551    3.2117    6.7628 C.3      1 ZINC000003951740    0.1000
24     H24     3.4592    3.7892    7.6872 H        1 ZINC000003951740    0.1200
25     O25     4.6240    2.3913    6.7086 O.3      1 ZINC000003951740   -0.5300
26     C26     3.4450    4.1648    5.5660 C.3      1 ZINC000003951740   -0.1600
27     C27     4.6656    5.0847    5.6364 C.3      1 ZINC000003951740    0.1600
28     H28     4.7059    5.5607    6.6161 H        1 ZINC000003951740    0.1000
29     C29     4.5581    6.1585    4.5518 C.3      1 ZINC000003951740   -0.0900
30     C30     5.6954    7.1363    4.6985 C.ar     1 ZINC000003951740   -0.0700
31     C31     5.5482    8.2524    5.5007 C.ar     1 ZINC000003951740   -0.1100
32     C32     6.5914    9.1493    5.6353 C.ar     1 ZINC000003951740   -0.1100
33     C33     7.7820    8.9299    4.9681 C.ar     1 ZINC000003951740   -0.1200
34     C34     7.9296    7.8133    4.1666 C.ar     1 ZINC000003951740   -0.1200
35     C35     6.8878    6.9141    4.0354 C.ar     1 ZINC000003951740   -0.1100
36     N36     5.8831    4.2977    5.4254 N.am     1 ZINC000003951740   -0.7200
37     C37     6.9765    4.5332    6.1773 C.2      1 ZINC000003951740    0.5200
38     O38     6.9266    5.3354    7.0856 O.2      1 ZINC000003951740   -0.5000
39     C39     8.2611    3.7997    5.8895 C.3      1 ZINC000003951740    0.1600
40     H40     8.5078    3.8999    4.8326 H        1 ZINC000003951740    0.1000
41     C41     8.0915    2.3190    6.2355 C.3      1 ZINC000003951740   -0.1000
42     C42     7.0814    1.6840    5.2778 C.3      1 ZINC000003951740   -0.1700
43     C43     9.4388    1.6064    6.1017 C.3      1 ZINC000003951740   -0.1400
44     N44     9.3409    4.3698    6.6991 N.am     1 ZINC000003951740   -0.6100
45     C45    10.4815    4.9995    6.0320 C.3      1 ZINC000003951740    0.1200
46     C46    11.0542    6.0930    6.9401 C.3      1 ZINC000003951740   -0.1500
47     C47    11.3994    5.4692    8.2966 C.3      1 ZINC000003951740    0.1100
48     N48    10.2089    4.8140    8.8408 N.am     1 ZINC000003951740   -0.7400
49     C49     9.2615    4.3089    8.0368 C.2      1 ZINC000003951740    0.7200
50     O50     8.2974    3.7654    8.5402 O.2      1 ZINC000003951740   -0.5700
51     H51     0.2728    1.7424    0.7612 H        1 ZINC000003951740    0.0700
52     H52    -1.3969    1.6891    0.1467 H        1 ZINC000003951740    0.0700
53     H53    -1.0956    1.7653    1.8993 H        1 ZINC000003951740    0.0700
54     H54    -1.0569   -0.3785   -1.0826 H        1 ZINC000003951740    0.1300
55     H55    -1.0145   -2.8375   -0.9844 H        1 ZINC000003951740    0.1300
56     H56    -0.6424   -3.9809    1.1632 H        1 ZINC000003951740    0.1300
57     H57     0.8213   -3.0237    3.7376 H        1 ZINC000003951740    0.0700
58     H58    -0.6385   -2.2520    4.4020 H        1 ZINC000003951740    0.0800
59     H59    -0.7592   -3.8276    3.5828 H        1 ZINC000003951740    0.0700
60     H60     1.6254   -0.5999    3.8233 H        1 ZINC000003951740    0.0800
61     H61     1.4601    0.9035    2.8848 H        1 ZINC000003951740    0.0800
62     H62     3.0373    1.3575    5.0224 H        1 ZINC000003951740    0.3900
63     H63     3.0615    0.6880    7.8287 H        1 ZINC000003951740    0.0800
64     H64     2.3119    1.9477    8.8383 H        1 ZINC000003951740    0.0800
65     H65    -0.0971    2.0217    9.1478 H        1 ZINC000003951740    0.1100
66     H66    -2.1971    0.7367    9.1919 H        1 ZINC000003951740    0.1200
67     H67    -2.3461   -1.4195    8.0122 H        1 ZINC000003951740    0.1100
68     H68    -0.3953   -2.2904    6.7878 H        1 ZINC000003951740    0.1100
69     H69     1.7033   -1.0032    6.7398 H        1 ZINC000003951740    0.1100
70     H70     4.6391    1.7771    5.9618 H        1 ZINC000003951740    0.3600
71     H71     3.4776    3.5879    4.6418 H        1 ZINC000003951740    0.0700
72     H72     2.5357    4.7655    5.5876 H        1 ZINC000003951740    0.0900
73     H73     4.6073    5.6888    3.5694 H        1 ZINC000003951740    0.0700
74     H74     3.6099    6.6859    4.6553 H        1 ZINC000003951740    0.0800
75     H75     4.6180    8.4239    6.0220 H        1 ZINC000003951740    0.1200
76     H76     6.4761   10.0217    6.2614 H        1 ZINC000003951740    0.1200
77     H77     8.5968    9.6310    5.0727 H        1 ZINC000003951740    0.1200
78     H78     8.8597    7.6420    3.6451 H        1 ZINC000003951740    0.1200
79     H79     7.0031    6.0418    3.4093 H        1 ZINC000003951740    0.1100
80     H80     5.9022    3.6070    4.7445 H        1 ZINC000003951740    0.3900
81     H81     7.7305    2.2242    7.2596 H        1 ZINC000003951740    0.1100
82     H82     7.4644    1.7362    4.2587 H        1 ZINC000003951740    0.0500
83     H83     6.9246    0.6413    5.5540 H        1 ZINC000003951740    0.0600
84     H84     6.1354    2.2221    5.3384 H        1 ZINC000003951740    0.0700
85     H85     9.8440    1.7796    5.1047 H        1 ZINC000003951740    0.0500
86     H86    10.1314    1.9956    6.8479 H        1 ZINC000003951740    0.0500
87     H87     9.3009    0.5364    6.2570 H        1 ZINC000003951740    0.0600
88     H88    11.2483    4.2500    5.8362 H        1 ZINC000003951740    0.0600
89     H89    10.1544    5.4418    5.0910 H        1 ZINC000003951740    0.0800
90     H90    11.9549    6.5091    6.4888 H        1 ZINC000003951740    0.0900
91     H91    10.3130    6.8803    7.0773 H        1 ZINC000003951740    0.0800
92     H92    12.1934    4.7336    8.1679 H        1 ZINC000003951740    0.0600
93     H93    11.7316    6.2489    8.9821 H        1 ZINC000003951740    0.0800
94     H94    10.1011    4.7472    9.8025 H        1 ZINC000003951740    0.4100
@<TRIPOS>BOND
1     1     2     1
2     1     51    1
3     1     52    1
4     1     53    1
5     2     8     ar
6     2     3     ar
7     3     4     ar
8     3     54    1
9     4     5     ar
10    4     55    1
11    5     6     ar
12    5     56    1
13    6     7     1
14    6     8     ar
15    7     57    1
16    7     58    1
17    7     59    1
18    8     9     1
19    9     10    1
20    10    11    1
21    10    60    1
22    10    61    1
23    11    12    2
24    11    13    am
25    13    14    1
26    13    62    1
27    14    15    1
28    14    16    1
29    14    23    1
30    16    17    1
31    16    63    1
32    16    64    1
33    17    22    ar
34    17    18    ar
35    18    19    ar
36    18    65    1
37    19    20    ar
38    19    66    1
39    20    21    ar
40    20    67    1
41    21    22    ar
42    21    68    1
43    22    69    1
44    23    24    1
45    23    25    1
46    23    26    1
47    25    70    1
48    26    27    1
49    26    71    1
50    26    72    1
51    27    28    1
52    27    29    1
53    27    36    1
54    29    30    1
55    29    73    1
56    29    74    1
57    30    35    ar
58    30    31    ar
59    31    32    ar
60    31    75    1
61    32    33    ar
62    32    76    1
63    33    34    ar
64    33    77    1
65    34    35    ar
66    34    78    1
67    35    79    1
68    36    37    am
69    36    80    1
70    37    38    2
71    37    39    1
72    39    40    1
73    39    41    1
74    39    44    1
75    41    42    1
76    41    43    1
77    41    81    1
78    42    82    1
79    42    83    1
80    42    84    1
81    43    85    1
82    43    86    1
83    43    87    1
84    44    49    am
85    44    45    1
86    45    46    1
87    45    88    1
88    45    89    1
89    46    47    1
90    46    90    1
91    46    91    1
92    47    48    1
93    47    92    1
94    47    93    1
95    48    49    am
96    48    94    1
97    49    50    2
@<TRIPOS>SUBSTRUCTURE
1   ZINC000003951740 1     RESIDUE    1   A     ZIN   1
