@<TRIPOS>MOLECULE
ZINC000085432544
119   127   1     0     0
SMALL
USER_CHARGES
@<TRIPOS>ATOM
1      C1      0.2272    1.2638   -0.0658 C.3      1 ZINC000085432544   -0.1600
2      C2      0.3589   -0.2540    0.0753 C.3      1 ZINC000085432544   -0.1200
3      C3      1.4793   -0.5788    1.0654 C.3      1 ZINC000085432544   -0.0200
4      C4      1.1357    0.1098    2.3511 C.2      1 ZINC000085432544   -0.1200
5      C5      1.0350   -0.5266    3.4788 C.2      1 ZINC000085432544   -0.1700
6      C6      1.2776   -2.0039    3.5703 C.3      1 ZINC000085432544    0.0200
7      N7      0.9035   -2.6748    2.3221 N.4      1 ZINC000085432544   -0.3700
8      H8     -0.1000   -2.6898    2.2181 H        1 ZINC000085432544    0.4300
9      C9      1.4397   -4.0638    2.3871 C.3      1 ZINC000085432544   -0.0100
10     C10     2.8923   -3.9322    1.8691 C.3      1 ZINC000085432544   -0.1400
11     C11     2.7752   -2.8211    0.7872 C.3      1 ZINC000085432544    0.0000
12     C12     2.6627   -3.4880   -0.5558 C.ar     1 ZINC000085432544   -0.2100
13     C13     3.6674   -2.9746   -1.3823 C.ar     1 ZINC000085432544    0.1900
14     C14     3.8087   -3.4369   -2.6928 C.ar     1 ZINC000085432544   -0.2200
15     C15     2.9090   -4.4042   -3.1265 C.ar     1 ZINC000085432544    0.2100
16     O16     3.0116   -4.8812   -4.3949 O.3      1 ZINC000085432544   -0.2800
17     C17     4.0571   -4.3439   -5.2075 C.3      1 ZINC000085432544    0.0200
18     C18     1.9113   -4.8951   -2.3006 C.ar     1 ZINC000085432544   -0.1900
19     C19     0.9514   -5.9494   -2.8361 C.3      1 ZINC000085432544    0.0600
20     C20     1.7527   -7.2111   -3.0299 C.2      1 ZINC000085432544    0.4800
21     O21     1.4509   -8.2164   -2.4314 O.2      1 ZINC000085432544   -0.5000
22     O22     2.8017   -7.2179   -3.8674 O.3      1 ZINC000085432544   -0.3200
23     C23     3.5273   -8.4681   -4.0047 C.3      1 ZINC000085432544    0.0300
24     C24    -0.1822   -6.1587   -1.7714 C.3      1 ZINC000085432544   -0.1100
25     C25    -1.4711   -6.0651   -2.5830 C.3      1 ZINC000085432544   -0.1300
26     H26    -1.4330   -5.2773   -3.3218 H        1 ZINC000085432544    0.1100
27     C27    -1.5930   -7.4851   -3.2256 C.3      1 ZINC000085432544   -0.0200
28     N28    -2.3759   -7.0354   -4.4253 N.4      1 ZINC000085432544   -0.3900
29     H29    -2.1733   -6.0689   -4.6494 H        1 ZINC000085432544    0.4300
30     C30    -3.7436   -7.1169   -3.9530 C.3      1 ZINC000085432544   -0.0500
31     C31    -3.9691   -6.1254   -2.8018 C.3      1 ZINC000085432544    0.1300
32     O32    -5.0984   -6.5870   -2.0422 O.3      1 ZINC000085432544   -0.5400
33     C33    -4.3366   -4.7595   -3.3932 C.3      1 ZINC000085432544   -0.1600
34     C34    -5.6133   -4.8912   -4.2260 C.3      1 ZINC000085432544   -0.1700
35     C35    -2.7907   -5.9483   -1.8343 C.3      1 ZINC000085432544   -0.1100
36     C36    -1.8669   -7.9011   -5.4937 C.3      1 ZINC000085432544    0.0000
37     C37    -0.3255   -7.5797   -5.5014 C.3      1 ZINC000085432544   -0.0700
38     C38    -0.1388   -6.1014   -5.2139 C.2      1 ZINC000085432544   -0.2100
39     C39     0.3550   -5.4548   -4.1383 C.2      1 ZINC000085432544    0.1400
40     N40     0.2387   -4.0867   -4.3592 N.pl3    1 ZINC000085432544   -0.5800
41     C41    -0.2380   -3.8339   -5.6053 C.ar     1 ZINC000085432544    0.1100
42     C42    -0.4725   -2.6498   -6.3036 C.ar     1 ZINC000085432544   -0.1300
43     C43    -0.9785   -2.7731   -7.5866 C.ar     1 ZINC000085432544   -0.0800
44     C44    -1.2444   -4.0044   -8.1623 C.ar     1 ZINC000085432544   -0.1300
45     C45    -1.0182   -5.1850   -7.4966 C.ar     1 ZINC000085432544   -0.0800
46     C46    -0.5037   -5.0846   -6.2010 C.ar     1 ZINC000085432544   -0.1200
47     C47     1.7683   -4.4458   -0.9942 C.ar     1 ZINC000085432544   -0.0200
48     N48     4.4043   -1.9992   -0.7304 N.3      1 ZINC000085432544   -0.4600
49     C49     5.8429   -2.1808   -0.9660 C.3      1 ZINC000085432544    0.0200
50     C50     4.0912   -2.0546    0.7217 C.3      1 ZINC000085432544    0.1100
51     H51     4.8735   -2.5822    1.2674 H        1 ZINC000085432544    0.1100
52     C52     3.9623   -0.6176    1.2170 C.3      1 ZINC000085432544    0.1500
53     O53     3.7291   -0.6147    2.6268 O.3      1 ZINC000085432544   -0.5200
54     C54     5.2295    0.1387    0.9118 C.2      1 ZINC000085432544    0.4300
55     O55     5.8797    0.6159    1.8114 O.2      1 ZINC000085432544   -0.4800
56     O56     5.6358    0.2822   -0.3594 O.3      1 ZINC000085432544   -0.3100
57     C57     6.8655    1.0226   -0.5788 C.3      1 ZINC000085432544    0.0300
58     C58     2.7625    0.0270    0.4945 C.3      1 ZINC000085432544    0.1000
59     H59     2.8185   -0.1839   -0.5735 H        1 ZINC000085432544    0.1300
60     O60     2.7713    1.4625    0.7126 O.3      1 ZINC000085432544   -0.3500
61     C61     3.4436    2.2099   -0.1769 C.2      1 ZINC000085432544    0.4400
62     C62     3.4969    3.7073   -0.0155 C.3      1 ZINC000085432544   -0.1500
63     O63     4.0061    1.6821   -1.1069 O.2      1 ZINC000085432544   -0.4600
64     C64     1.5456   -2.0571    1.1736 C.3      1 ZINC000085432544    0.0600
65     H65     0.8513   -2.3496    0.3859 H        1 ZINC000085432544    0.1100
66     H66     1.1668    1.6776   -0.4318 H        1 ZINC000085432544    0.0700
67     H67    -0.5710    1.4952   -0.7711 H        1 ZINC000085432544    0.0700
68     H68    -0.0081    1.6999    0.9051 H        1 ZINC000085432544    0.0700
69     H69    -0.5807   -0.6678    0.4414 H        1 ZINC000085432544    0.0700
70     H70     0.5942   -0.6901   -0.8955 H        1 ZINC000085432544    0.0800
71     H71     0.9658    1.1763    2.3397 H        1 ZINC000085432544    0.1500
72     H72     0.7706    0.0208    4.3715 H        1 ZINC000085432544    0.1600
73     H73     2.3344   -2.1815    3.7696 H        1 ZINC000085432544    0.1500
74     H74     0.6858   -2.4140    4.3886 H        1 ZINC000085432544    0.1400
75     H75     1.4322   -4.4283    3.4143 H        1 ZINC000085432544    0.1500
76     H76     0.8628   -4.7263    1.7417 H        1 ZINC000085432544    0.1300
77     H77     3.5613   -3.6207    2.6713 H        1 ZINC000085432544    0.1100
78     H78     3.2301   -4.8688    1.4254 H        1 ZINC000085432544    0.1300
79     H79     4.5843   -3.0586   -3.3422 H        1 ZINC000085432544    0.1500
80     H80     3.9210   -3.2673   -5.3096 H        1 ZINC000085432544    0.0600
81     H81     5.0208   -4.5456   -4.7399 H        1 ZINC000085432544    0.0600
82     H82     4.0268   -4.8090   -6.1928 H        1 ZINC000085432544    0.1100
83     H83     3.9252   -8.7657   -3.0346 H        1 ZINC000085432544    0.0700
84     H84     2.8530   -9.2410   -4.3736 H        1 ZINC000085432544    0.0700
85     H85     4.3485   -8.3360   -4.7092 H        1 ZINC000085432544    0.1100
86     H86    -0.0894   -7.1420   -1.2967 H        1 ZINC000085432544    0.1200
87     H87    -0.1430   -5.3796   -1.0027 H        1 ZINC000085432544    0.1000
88     H88    -0.6550   -7.9533   -3.4387 H        1 ZINC000085432544    0.1500
89     H89    -2.2039   -8.1433   -2.5886 H        1 ZINC000085432544    0.1500
90     H90    -4.4255   -6.8782   -4.7716 H        1 ZINC000085432544    0.1300
91     H91    -3.9516   -8.1294   -3.6033 H        1 ZINC000085432544    0.1400
92     H92    -5.9175   -6.6473   -2.5525 H        1 ZINC000085432544    0.3900
93     H93    -4.5016   -4.0464   -2.5855 H        1 ZINC000085432544    0.0900
94     H94    -3.5234   -4.4077   -4.0280 H        1 ZINC000085432544    0.0700
95     H95    -5.8378   -3.9358   -4.7003 H        1 ZINC000085432544    0.0800
96     H96    -5.4701   -5.6527   -4.9926 H        1 ZINC000085432544    0.0600
97     H97    -6.4416   -5.1788   -3.5784 H        1 ZINC000085432544    0.0700
98     H98    -2.8297   -6.7158   -1.0592 H        1 ZINC000085432544    0.1000
99     H99    -2.8449   -4.9634   -1.3644 H        1 ZINC000085432544    0.1000
100    H100   -2.0372   -8.9558   -5.2658 H        1 ZINC000085432544    0.1400
101    H101   -2.3156   -7.6475   -6.4573 H        1 ZINC000085432544    0.1300
102    H102    0.2102   -8.2141   -4.8155 H        1 ZINC000085432544    0.0900
103    H103    0.0608   -7.7824   -6.5153 H        1 ZINC000085432544    0.1200
104    H104    0.4421   -3.3921   -3.7146 H        1 ZINC000085432544    0.4200
105    H105   -0.2685   -1.6844   -5.8656 H        1 ZINC000085432544    0.1300
106    H106   -1.1712   -1.8780   -8.1593 H        1 ZINC000085432544    0.1300
107    H107   -1.6415   -4.0384   -9.1658 H        1 ZINC000085432544    0.1300
108    H108   -1.2285   -6.1413   -7.9515 H        1 ZINC000085432544    0.1300
109    H109    0.9919   -4.8289   -0.3486 H        1 ZINC000085432544    0.1500
110    H110    6.0756   -1.9329   -2.0017 H        1 ZINC000085432544    0.0900
111    H111    6.4056   -1.5262   -0.3005 H        1 ZINC000085432544    0.0900
112    H112    6.1149   -3.2181   -0.7708 H        1 ZINC000085432544    0.0500
113    H113    3.6371    0.2690    3.0084 H        1 ZINC000085432544    0.4000
114    H114    6.7541    2.0351   -0.1909 H        1 ZINC000085432544    0.0600
115    H115    7.6865    0.5243   -0.0634 H        1 ZINC000085432544    0.0600
116    H116    7.0789    1.0642   -1.6469 H        1 ZINC000085432544    0.1100
117    H117    4.3617    3.9769    0.5907 H        1 ZINC000085432544    0.1100
118    H118    3.5802    4.1757   -0.9962 H        1 ZINC000085432544    0.1100
119    H119    2.5871    4.0523    0.4758 H        1 ZINC000085432544    0.1000
@<TRIPOS>BOND
1     1     2     1
2     1     66    1
3     1     67    1
4     1     68    1
5     2     3     1
6     2     69    1
7     2     70    1
8     3     58    1
9     3     64    1
10    3     4     1
11    4     5     2
12    4     71    1
13    5     6     1
14    5     72    1
15    6     7     1
16    6     73    1
17    6     74    1
18    7     8     1
19    7     64    1
20    7     9     1
21    9     10    1
22    9     75    1
23    9     76    1
24    10    11    1
25    10    77    1
26    10    78    1
27    11    50    1
28    11    12    1
29    11    64    1
30    12    47    ar
31    12    13    ar
32    13    14    ar
33    13    48    1
34    14    15    ar
35    14    79    1
36    15    16    1
37    15    18    ar
38    16    17    1
39    17    80    1
40    17    81    1
41    17    82    1
42    18    19    1
43    18    47    ar
44    19    39    1
45    19    20    1
46    19    24    1
47    20    21    2
48    20    22    1
49    22    23    1
50    23    83    1
51    23    84    1
52    23    85    1
53    24    25    1
54    24    86    1
55    24    87    1
56    25    26    1
57    25    35    1
58    25    27    1
59    27    28    1
60    27    88    1
61    27    89    1
62    28    29    1
63    28    30    1
64    28    36    1
65    30    31    1
66    30    90    1
67    30    91    1
68    31    32    1
69    31    33    1
70    31    35    1
71    32    92    1
72    33    34    1
73    33    93    1
74    33    94    1
75    34    95    1
76    34    96    1
77    34    97    1
78    35    98    1
79    35    99    1
80    36    37    1
81    36    100   1
82    36    101   1
83    37    38    1
84    37    102   1
85    37    103   1
86    38    46    1
87    38    39    2
88    39    40    1
89    40    41    1
90    40    104   1
91    41    46    ar
92    41    42    ar
93    42    43    ar
94    42    105   1
95    43    44    ar
96    43    106   1
97    44    45    ar
98    44    107   1
99    45    46    ar
100   45    108   1
101   47    109   1
102   48    49    1
103   48    50    1
104   49    110   1
105   49    111   1
106   49    112   1
107   50    51    1
108   50    52    1
109   52    53    1
110   52    54    1
111   52    58    1
112   53    113   1
113   54    55    2
114   54    56    1
115   56    57    1
116   57    114   1
117   57    115   1
118   57    116   1
119   58    59    1
120   58    60    1
121   60    61    1
122   61    62    1
123   61    63    2
124   62    117   1
125   62    118   1
126   62    119   1
127   64    65    1
@<TRIPOS>SUBSTRUCTURE
1   ZINC000085432544 1     RESIDUE    1   A     ZIN   1
