@<TRIPOS>MOLECULE
ZINC000003830891
36    35    1     0     0
SMALL
USER_CHARGES
@<TRIPOS>ATOM
1      N1     -0.0116    1.0048    0.0076 N.4      1 ZINC000003830891   -0.6100
2      H2      0.0021   -0.0041    0.0020 H        1 ZINC000003830891    0.4300
3      H3      0.9350    1.3541    0.0004 H        1 ZINC000003830891    0.4100
4      H4     -0.4996    1.3391   -0.8099 H        1 ZINC000003830891    0.4300
5      C5     -0.6992    1.4786    1.2162 C.3      1 ZINC000003830891   -0.0500
6      H6     -0.1720    1.1175    2.0992 H        1 ZINC000003830891    0.1300
7      C7     -0.7199    3.0084    1.2246 C.3      1 ZINC000003830891   -0.1100
8      C8      0.7111    3.5372    1.3395 C.3      1 ZINC000003830891   -0.1500
9      C9      0.6907    5.0441    1.3478 C.2      1 ZINC000003830891    0.5100
10     O10    -0.3646    5.6367    1.2695 O.2      1 ZINC000003830891   -0.5000
11     N11     1.8451    5.7332    1.4422 N.am     1 ZINC000003830891   -0.7100
12     C12     1.8253    7.1980    1.4502 C.3      1 ZINC000003830891    0.1500
13     H13     1.0269    7.5541    0.7992 H        1 ZINC000003830891    0.1300
14     C14     1.5815    7.6969    2.8759 C.3      1 ZINC000003830891   -0.0900
15     S15    -0.0116    7.0673    3.4727 S.3      1 ZINC000003830891   -0.1800
16     C16     3.1488    7.7211    0.9544 C.2      1 ZINC000003830891    0.5100
17     O17     4.0226    6.9465    0.6266 O.2      1 ZINC000003830891   -0.5500
18     N18     3.3614    9.0496    0.8753 N.am     1 ZINC000003830891   -0.6900
19     C19     4.6480    9.5581    0.3933 C.3      1 ZINC000003830891    0.0500
20     C20     4.6275   11.0649    0.4016 C.2      1 ZINC000003830891    0.4900
21     O21     3.6307   11.6590    0.7755 O.co2    1 ZINC000003830891   -0.6900
22     O22     5.6079   11.6899    0.0344 O.co2    1 ZINC000003830891   -0.6900
23     C23    -2.1130    0.9569    1.2269 C.2      1 ZINC000003830891    0.4900
24     O24    -2.8004    1.0794    2.2264 O.co2    1 ZINC000003830891   -0.6300
25     O25    -2.5694    0.4125    0.2361 O.co2    1 ZINC000003830891   -0.6800
26     H26    -1.1680    3.3708    0.2994 H        1 ZINC000003830891    0.0900
27     H27    -1.3062    3.3592    2.0739 H        1 ZINC000003830891    0.1200
28     H28     1.1592    3.1749    2.2647 H        1 ZINC000003830891    0.1100
29     H29     1.2974    3.1865    0.4902 H        1 ZINC000003830891    0.0800
30     H30     2.6891    5.2592    1.5048 H        1 ZINC000003830891    0.4100
31     H31     2.3798    7.3408    3.5270 H        1 ZINC000003830891    0.0900
32     H32     1.5667    8.7868    2.8819 H        1 ZINC000003830891    0.1000
33     H33    -0.0919    7.5764    4.7151 H        1 ZINC000003830891    0.0500
34     H34     2.6625    9.6691    1.1375 H        1 ZINC000003830891    0.4100
35     H35     5.4463    9.2020    1.0444 H        1 ZINC000003830891    0.0700
36     H36     4.8217    9.2027   -0.6224 H        1 ZINC000003830891    0.0700
@<TRIPOS>BOND
1     1     2     1
2     1     3     1
3     1     4     1
4     1     5     1
5     5     6     1
6     5     7     1
7     5     23    1
8     7     8     1
9     7     26    1
10    7     27    1
11    8     9     1
12    8     28    1
13    8     29    1
14    9     10    2
15    9     11    am
16    11    12    1
17    11    30    1
18    12    13    1
19    12    14    1
20    12    16    1
21    14    15    1
22    14    31    1
23    14    32    1
24    15    33    1
25    16    17    2
26    16    18    am
27    18    19    1
28    18    34    1
29    19    20    1
30    19    35    1
31    19    36    1
32    20    21    ar
33    20    22    ar
34    23    24    ar
35    23    25    ar
@<TRIPOS>SUBSTRUCTURE
1   ZINC000003830891 1     RESIDUE    1   A     ZIN   1
