@<TRIPOS>MOLECULE
ZINC000043202140
51    53    1     0     0
SMALL
USER_CHARGES
@<TRIPOS>ATOM
1      C1     -0.0187    1.5258    0.0104 C.3      1 ZINC000043202140   -0.1500
2      C2      0.0021   -0.0041    0.0020 C.3      1 ZINC000043202140   -0.1300
3      C3     -1.4333   -0.5336    0.0129 C.3      1 ZINC000043202140    0.1300
4      N4     -1.4134   -1.9985    0.0048 N.am     1 ZINC000043202140   -1.1200
5      S5     -2.7837   -2.8473    0.3846 S.o2     1 ZINC000043202140    2.7400
6      O6     -2.4527   -4.2230    0.2540 O.2      1 ZINC000043202140   -1.0400
7      O7     -3.2873   -2.2796    1.5860 O.2      1 ZINC000043202140   -1.0400
8      N8     -3.9034   -2.5221   -0.7914 N.pl3    1 ZINC000043202140   -1.0600
9      C9     -5.1587   -3.1024   -0.7313 C.ar     1 ZINC000043202140    0.5100
10     N10    -5.4795   -3.9185    0.2686 N.ar     1 ZINC000043202140   -0.6400
11     C11    -6.6722   -4.4750    0.3333 C.ar     1 ZINC000043202140    0.3700
12     N12    -7.5994   -4.2561   -0.5771 N.ar     1 ZINC000043202140   -0.6400
13     C13    -7.3680   -3.4549   -1.6119 C.ar     1 ZINC000043202140    0.3800
14     O14    -8.3286   -3.2370   -2.5422 O.3      1 ZINC000043202140   -0.3000
15     C15    -9.5786   -3.9030   -2.3524 C.3      1 ZINC000043202140    0.0700
16     C16   -10.5296   -3.5376   -3.4939 C.3      1 ZINC000043202140    0.0800
17     O17   -10.0133   -4.0465   -4.7254 O.3      1 ZINC000043202140   -0.2700
18     C18   -10.7411   -3.8078   -5.8428 C.ar     1 ZINC000043202140    0.5200
19     N19   -11.8696   -3.1242   -5.7440 N.ar     1 ZINC000043202140   -0.5600
20     C20   -12.6048   -2.8732   -6.8148 C.ar     1 ZINC000043202140    0.2300
21     C21   -12.1790   -3.3363   -8.0506 C.ar     1 ZINC000043202140   -0.2600
22     Br22  -13.1946   -3.0026   -9.6105 Br       1 ZINC000043202140   -0.0200
23     C23   -10.9914   -4.0492   -8.1168 C.ar     1 ZINC000043202140    0.2300
24     N24   -10.3030   -4.2595   -7.0067 N.ar     1 ZINC000043202140   -0.5100
25     C25    -6.1172   -2.8351   -1.7218 C.ar     1 ZINC000043202140   -0.2500
26     C26    -5.8099   -1.9328   -2.8571 C.ar     1 ZINC000043202140    0.0600
27     C27    -5.7669   -2.4341   -4.1573 C.ar     1 ZINC000043202140   -0.1000
28     C28    -5.4804   -1.5898   -5.2104 C.ar     1 ZINC000043202140   -0.0900
29     C29    -5.2355   -0.2475   -4.9778 C.ar     1 ZINC000043202140   -0.1000
30     Br30   -4.8435    0.9035   -6.4260 Br       1 ZINC000043202140   -0.0800
31     C31    -5.2769    0.2554   -3.6888 C.ar     1 ZINC000043202140   -0.1000
32     C32    -5.5685   -0.5788   -2.6291 C.ar     1 ZINC000043202140   -0.0800
33     H33     1.0039    1.9031    0.0027 H        1 ZINC000043202140    0.0500
34     H34    -0.5459    1.8868   -0.8726 H        1 ZINC000043202140    0.0600
35     H35    -0.5289    1.8773    0.9072 H        1 ZINC000043202140    0.0600
36     H36     0.5123   -0.3556   -0.8948 H        1 ZINC000043202140    0.0600
37     H37     0.5293   -0.3651    0.8851 H        1 ZINC000043202140    0.0600
38     H38    -1.9435   -0.1821    0.9097 H        1 ZINC000043202140    0.0700
39     H39    -1.9605   -0.1726   -0.8702 H        1 ZINC000043202140    0.0600
40     H40    -0.5976   -2.4712   -0.2229 H        1 ZINC000043202140    0.4000
41     H41    -6.8973   -5.1327    1.1599 H        1 ZINC000043202140    0.1800
42     H42    -9.4183   -4.9811   -2.3440 H        1 ZINC000043202140    0.0800
43     H43   -10.0149   -3.5931   -1.4028 H        1 ZINC000043202140    0.0900
44     H44   -11.5103   -3.9736   -3.3033 H        1 ZINC000043202140    0.0900
45     H45   -10.6203   -2.4533   -3.5583 H        1 ZINC000043202140    0.0800
46     H46   -13.5252   -2.3149   -6.7276 H        1 ZINC000043202140    0.1800
47     H47   -10.6308   -4.4242   -9.0632 H        1 ZINC000043202140    0.1800
48     H48    -5.9572   -3.4814   -4.3399 H        1 ZINC000043202140    0.1200
49     H49    -5.4469   -1.9771   -6.2181 H        1 ZINC000043202140    0.1200
50     H50    -5.0850    1.3035   -3.5128 H        1 ZINC000043202140    0.1200
51     H51    -5.6009   -0.1854   -1.6239 H        1 ZINC000043202140    0.1300
@<TRIPOS>BOND
1     1     2     1
2     1     33    1
3     1     34    1
4     1     35    1
5     2     3     1
6     2     36    1
7     2     37    1
8     3     4     1
9     3     38    1
10    3     39    1
11    4     5     am
12    4     40    1
13    5     6     2
14    5     7     2
15    5     8     1
16    8     9     1
17    9     25    ar
18    9     10    ar
19    10    11    ar
20    11    12    ar
21    11    41    1
22    12    13    ar
23    13    14    1
24    13    25    ar
25    14    15    1
26    15    16    1
27    15    42    1
28    15    43    1
29    16    17    1
30    16    44    1
31    16    45    1
32    17    18    1
33    18    24    ar
34    18    19    ar
35    19    20    ar
36    20    21    ar
37    20    46    1
38    21    22    1
39    21    23    ar
40    23    24    ar
41    23    47    1
42    25    26    1
43    26    32    ar
44    26    27    ar
45    27    28    ar
46    27    48    1
47    28    29    ar
48    28    49    1
49    29    30    1
50    29    31    ar
51    31    32    ar
52    31    50    1
53    32    51    1
@<TRIPOS>SUBSTRUCTURE
1   ZINC000043202140 1     RESIDUE    1   A     ZIN   1
