@<TRIPOS>MOLECULE
ZINC000000388081
19   19    0    0    0
SMALL
USER_CHARGES
NO_NAME
@<TRIPOS>ATOM
1 N1       -0.0116     1.0048     0.0076 N.4    1 <0>      -0.6400
2 H2        0.0021    -0.0041     0.0020 H      1 <0>       0.4400
3 H3        0.9350     1.3541     0.0004 H      1 <0>       0.4500
4 H4       -0.4996     1.3391    -0.8099 H      1 <0>       0.4400
5 C5       -0.6992     1.4786     1.2162 C.3    1 <0>      -0.0100
6 C6       -2.1346     0.9490     1.2270 C.3    1 <0>      -0.0900
7 C7       -2.8400     1.4350     2.4669 C.2    1 <0>       0.0000
8 C8       -2.7964     0.8543     3.6812 C.2    1 <0>       0.0600
9 N9       -3.5716     1.6166     4.5128 N.pl3  1 <0>      -0.5100
10 C10      -4.0624     2.6372     3.7772 C.cat  1 <0>       0.3400
11 N11      -3.6165     2.5250     2.5559 N.pl3  1 <0>      -0.4800
12 H12      -3.8192     3.1311     1.8262 H      1 <0>       0.4700
13 H13      -0.1720     1.1175     2.0992 H      1 <0>       0.1400
14 H14      -0.7140     2.5685     1.2222 H      1 <0>       0.1400
15 H15      -2.6618     1.3101     0.3440 H      1 <0>       0.1200
16 H16      -2.1198    -0.1409     1.2210 H      1 <0>       0.1300
17 H17      -2.2542    -0.0410     3.9476 H      1 <0>       0.2300
18 H18      -3.7376     1.4540     5.4546 H      1 <0>       0.4800
19 H19      -4.7127     3.4192     4.1405 H      1 <0>       0.2700
@<TRIPOS>BOND
1    1    2 1
2    1    3 1
3    1    4 1
4    1    5 1
5    5    6 1
6    5   13 1
7    5   14 1
8    6    7 1
9    6   15 1
10    6   16 1
11    7   11 1
12    7    8 2
13    8    9 1
14    8   17 1
15    9   10 ar
16    9   18 1
17   10   11 ar
18   10   19 1
19   11   12 1
