@<TRIPOS>MOLECULE
ZINC000001535101
60   61    0    0    0
SMALL
USER_CHARGES
NO_NAME
@<TRIPOS>ATOM
1 C1       -0.0187     1.5258     0.0104 C.3    1 <0>      -0.1400
2 C2        0.0021    -0.0041     0.0020 C.3    1 <0>      -0.0500
3 C3        0.7421    -0.5109     1.2415 C.3    1 <0>      -0.1400
4 C4       -1.4117    -0.5257     0.0127 C.ar   1 <0>       0.2300
5 N5       -2.2292    -0.2240     1.0059 N.ar   1 <0>      -0.5300
6 C6       -3.4759    -0.6756     1.0291 C.ar   1 <0>       0.5500
7 N7       -4.2938    -0.3316     2.0906 N.am   1 <0>      -0.9100
8 C8       -3.7788     0.5191     3.1665 C.3    1 <0>       0.0900
9 S9       -5.8548    -0.8815     2.1452 S.o2   1 <0>       2.6000
10 C10      -5.7481    -2.4594     3.0336 C.3    1 <0>      -0.6700
11 O11      -6.5401     0.0863     2.9282 O.2    1 <0>      -0.9500
12 O12      -6.1978    -1.0982     0.7833 O.2    1 <0>      -0.9000
13 N13      -3.9621    -1.4447     0.0680 N.ar   1 <0>      -0.5200
14 C14      -3.2070    -1.7967    -0.9692 C.ar   1 <0>       0.2600
15 C15      -3.7547    -2.6570    -2.0427 C.ar   1 <0>      -0.0700
16 C16      -3.3511    -2.4686    -3.3647 C.ar   1 <0>      -0.0500
17 C17      -3.8636    -3.2728    -4.3610 C.ar   1 <0>      -0.1600
18 C18      -4.7783    -4.2667    -4.0506 C.ar   1 <0>       0.1200
19 F19      -5.2773    -5.0522    -5.0300 F      1 <0>      -0.1400
20 C20      -5.1825    -4.4577    -2.7387 C.ar   1 <0>      -0.1600
21 C21      -4.6716    -3.6622    -1.7346 C.ar   1 <0>      -0.0400
22 C22      -1.8778    -1.3306    -1.0309 C.ar   1 <0>      -0.1700
23 C23      -0.9989    -1.6923    -2.1602 C.2    1 <0>      -0.1300
24 C24      -0.8816    -2.9615    -2.5296 C.2    1 <0>      -0.1500
25 C25       0.0157    -3.3308    -3.6826 C.3    1 <0>       0.1400
26 H26      -0.5865    -3.7325    -4.4975 H      1 <0>       0.1100
27 O27       0.7137    -2.1685    -4.1343 O.3    1 <0>      -0.5400
28 C28       1.0247    -4.3863    -3.2259 C.3    1 <0>      -0.1800
29 C29       1.8534    -4.8522    -4.4247 C.3    1 <0>       0.1400
30 H30       1.1869    -5.2007    -5.2137 H      1 <0>       0.0900
31 O31       2.6399    -3.7632    -4.9121 O.3    1 <0>      -0.5300
32 C32       2.7754    -5.9947    -3.9942 C.3    1 <0>      -0.2200
33 C33       3.5016    -6.5353    -5.1990 C.2    1 <0>       0.4900
34 O34       3.3003    -6.0515    -6.2999 O.co2  1 <0>      -0.6800
35 O35       4.2903    -7.4564    -5.0729 O.co2  1 <0>      -0.7100
36 H36       1.0039     1.9031     0.0027 H      1 <0>       0.0700
37 H37      -0.5459     1.8868    -0.8726 H      1 <0>       0.0500
38 H38      -0.5289     1.8773     0.9072 H      1 <0>       0.0600
39 H39       0.5123    -0.3556    -0.8948 H      1 <0>       0.1000
40 H40       0.2319    -0.1594     2.1383 H      1 <0>       0.0600
41 H41       0.7568    -1.6008     1.2356 H      1 <0>       0.0500
42 H42       1.7647    -0.1336     1.2338 H      1 <0>       0.0700
43 H43      -3.9631     1.5652     2.9222 H      1 <0>       0.0700
44 H44      -4.2832     0.2696     4.1000 H      1 <0>       0.0800
45 H45      -2.7069     0.3553     3.2776 H      1 <0>       0.0900
46 H46      -5.3419    -2.2884     4.0305 H      1 <0>       0.1300
47 H47      -6.7427    -2.8975     3.1169 H      1 <0>       0.1300
48 H48      -5.0956    -3.1406     2.4874 H      1 <0>       0.1300
49 H49      -2.6386    -1.6942    -3.6076 H      1 <0>       0.1500
50 H50      -3.5520    -3.1275    -5.3848 H      1 <0>       0.1400
51 H51      -5.8958    -5.2333    -2.5018 H      1 <0>       0.1400
52 H52      -4.9868    -3.8120    -0.7126 H      1 <0>       0.1400
53 H53      -0.4513    -0.9241    -2.6859 H      1 <0>       0.1400
54 H54      -1.4292    -3.7297    -2.0039 H      1 <0>       0.1200
55 H55       1.2710    -1.7573    -3.4594 H      1 <0>       0.3700
56 H56       1.6850    -3.9559    -2.4730 H      1 <0>       0.0600
57 H57       0.4929    -5.2368    -2.7993 H      1 <0>       0.0800
58 H58       3.2574    -3.4019    -4.2615 H      1 <0>       0.3500
59 H59       3.5001    -5.6235    -3.2696 H      1 <0>       0.0600
60 H60       2.1824    -6.7890    -3.5408 H      1 <0>       0.0600
@<TRIPOS>BOND
1    1    2 1
2    1   36 1
3    1   37 1
4    1   38 1
5    2    3 1
6    2    4 1
7    2   39 1
8    3   40 1
9    3   41 1
10    3   42 1
11    4   22 ar
12    4    5 ar
13    5    6 ar
14    6    7 1
15    6   13 ar
16    7    8 1
17    7    9 am
18    8   43 1
19    8   44 1
20    8   45 1
21    9   10 1
22    9   11 2
23    9   12 2
24   10   46 1
25   10   47 1
26   10   48 1
27   13   14 ar
28   14   15 1
29   14   22 ar
30   15   21 ar
31   15   16 ar
32   16   17 ar
33   16   49 1
34   17   18 ar
35   17   50 1
36   18   19 1
37   18   20 ar
38   20   21 ar
39   20   51 1
40   21   52 1
41   22   23 1
42   23   24 2
43   23   53 1
44   24   25 1
45   24   54 1
46   25   26 1
47   25   27 1
48   25   28 1
49   27   55 1
50   28   29 1
51   28   56 1
52   28   57 1
53   29   30 1
54   29   31 1
55   29   32 1
56   31   58 1
57   32   33 1
58   32   59 1
59   32   60 1
60   33   34 ar
61   33   35 ar
