@<TRIPOS>MOLECULE
ZINC000003873921
42    44    1     0     0
SMALL
USER_CHARGES
@<TRIPOS>ATOM
1      O1     -0.3231    0.6161   -0.3051 O.co2    1 ZINC000003873921   -1.0700
2      S2     -0.4897    2.0599   -0.2442 S.o2     1 ZINC000003873921    2.7500
3      O3      0.7830    2.7601   -0.3223 O.co2    1 ZINC000003873921   -1.0700
4      O4     -1.4397    2.5421   -1.2346 O.co2    1 ZINC000003873921   -1.0800
5      O5     -1.0814    2.3761    1.1220 O.3      1 ZINC000003873921   -0.7200
6      C6     -2.1029    1.5566    1.4850 C.ar     1 ZINC000003873921    0.1200
7      C7     -3.4091    1.8850    1.1523 C.ar     1 ZINC000003873921   -0.1300
8      C8     -4.4457    1.0503    1.5225 C.ar     1 ZINC000003873921   -0.0900
9      C9     -4.1823   -0.1117    2.2242 C.ar     1 ZINC000003873921   -0.0800
10     C10    -5.3150   -1.0204    2.6268 C.3      1 ZINC000003873921    0.0500
11     C11    -5.1668   -2.3476    1.9285 C.ar     1 ZINC000003873921   -0.0900
12     C12    -5.8064   -3.4663    2.4295 C.ar     1 ZINC000003873921   -0.1000
13     C13    -5.6725   -4.6840    1.7910 C.ar     1 ZINC000003873921   -0.1100
14     C14    -4.8955   -4.7837    0.6460 C.ar     1 ZINC000003873921    0.1200
15     O15    -4.7625   -5.9804    0.0158 O.3      1 ZINC000003873921   -0.7100
16     S16    -5.8158   -6.2379   -1.0523 S.o2     1 ZINC000003873921    2.7600
17     O17    -5.7603   -7.6581   -1.3623 O.co2    1 ZINC000003873921   -1.0700
18     O18    -7.0966   -5.8538   -0.4796 O.co2    1 ZINC000003873921   -1.0800
19     O19    -5.4612   -5.4148   -2.1981 O.co2    1 ZINC000003873921   -1.0800
20     C20    -4.2547   -3.6598    0.1453 C.ar     1 ZINC000003873921   -0.1200
21     C21    -4.3961   -2.4433    0.7846 C.ar     1 ZINC000003873921   -0.0900
22     C22    -5.2837   -1.2315    4.1186 C.ar     1 ZINC000003873921    0.1500
23     C23    -4.4560   -2.1998    4.6541 C.ar     1 ZINC000003873921   -0.1600
24     C24    -4.4343   -2.3857    6.0281 C.ar     1 ZINC000003873921   -0.0800
25     C25    -5.2497   -1.5870    6.8150 C.ar     1 ZINC000003873921   -0.1800
26     C26    -6.0514   -0.6386    6.2081 C.ar     1 ZINC000003873921    0.1000
27     N27    -6.0425   -0.4862    4.8984 N.ar     1 ZINC000003873921   -0.4800
28     C28    -2.8813   -0.4415    2.5566 C.ar     1 ZINC000003873921   -0.1000
29     C29    -1.8407    0.3873    2.1841 C.ar     1 ZINC000003873921   -0.1100
30     H30    -3.6153    2.7926    0.6045 H        1 ZINC000003873921    0.1400
31     H31    -5.4627    1.3057    1.2640 H        1 ZINC000003873921    0.1300
32     H32    -6.2642   -0.5651    2.3441 H        1 ZINC000003873921    0.1100
33     H33    -6.4109   -3.3882    3.3211 H        1 ZINC000003873921    0.1200
34     H34    -6.1720   -5.5576    2.1830 H        1 ZINC000003873921    0.1300
35     H35    -3.6492   -3.7349   -0.7459 H        1 ZINC000003873921    0.1400
36     H36    -3.8975   -1.5680    0.3952 H        1 ZINC000003873921    0.1400
37     H37    -3.8342   -2.8044    4.0106 H        1 ZINC000003873921    0.1400
38     H38    -3.7977   -3.1352    6.4746 H        1 ZINC000003873921    0.1300
39     H39    -5.2585   -1.7045    7.8885 H        1 ZINC000003873921    0.1300
40     H40    -6.6897   -0.0126    6.8140 H        1 ZINC000003873921    0.1500
41     H41    -2.6782   -1.3496    3.1047 H        1 ZINC000003873921    0.1300
42     H42    -0.8247    0.1290    2.4437 H        1 ZINC000003873921    0.1300
@<TRIPOS>BOND
1     1     2     ar
2     2     3     ar
3     2     4     ar
4     2     5     1
5     5     6     1
6     6     29    ar
7     6     7     ar
8     7     8     ar
9     7     30    1
10    8     9     ar
11    8     31    1
12    9     10    1
13    9     28    ar
14    10    11    1
15    10    22    1
16    10    32    1
17    11    21    ar
18    11    12    ar
19    12    13    ar
20    12    33    1
21    13    14    ar
22    13    34    1
23    14    15    1
24    14    20    ar
25    15    16    1
26    16    17    ar
27    16    18    ar
28    16    19    ar
29    20    21    ar
30    20    35    1
31    21    36    1
32    22    27    ar
33    22    23    ar
34    23    24    ar
35    23    37    1
36    24    25    ar
37    24    38    1
38    25    26    ar
39    25    39    1
40    26    27    ar
41    26    40    1
42    28    29    ar
43    28    41    1
44    29    42    1
@<TRIPOS>SUBSTRUCTURE
1   ZINC000003873921 1     RESIDUE    1   A     ZIN   1
