@<TRIPOS>MOLECULE
ZINC000064033452
50    54    1     0     0
SMALL
USER_CHARGES
@<TRIPOS>ATOM
1      C1     -0.0087    0.6536    2.7081 C.3      1 ZINC000064033452   -0.1100
2      C2     -0.0206   -0.7571    2.1781 C.ar     1 ZINC000064033452   -0.1500
3      C3      0.5513   -1.0495    0.9503 C.ar     1 ZINC000064033452   -0.0600
4      C4      0.5197   -2.3588    0.4995 C.ar     1 ZINC000064033452   -0.1900
5      C5     -0.0808   -3.3354    1.2865 C.ar     1 ZINC000064033452    0.3400
6      N6     -0.1159   -4.6554    0.8395 N.am     1 ZINC000064033452   -0.6400
7      C7      0.0277   -4.9265   -0.4728 C.2      1 ZINC000064033452    0.5600
8      O8      0.2825   -4.0330   -1.2523 O.2      1 ZINC000064033452   -0.5100
9      C9     -0.1282   -6.3400   -0.9717 C.3      1 ZINC000064033452   -0.1200
10     C10    -1.5240   -6.9038   -0.9016 C.ar     1 ZINC000064033452   -0.0300
11     C11    -1.7508   -8.1054   -0.2576 C.ar     1 ZINC000064033452   -0.0900
12     C12    -3.0298   -8.6268   -0.1905 C.ar     1 ZINC000064033452   -0.0800
13     C13    -4.0874   -7.9454   -0.7698 C.ar     1 ZINC000064033452    0.0300
14     O14    -5.4190   -8.2359   -0.8450 O.3      1 ZINC000064033452   -0.2900
15     C15    -6.0643   -6.9954   -1.1885 C.3      1 ZINC000064033452    0.5700
16     F16    -7.1702   -7.2286   -2.0131 F        1 ZINC000064033452   -0.1200
17     F17    -6.4504   -6.3059   -0.0341 F        1 ZINC000064033452   -0.1500
18     O18    -5.0472   -6.2663   -1.9005 O.3      1 ZINC000064033452   -0.2900
19     C19    -3.8587   -6.7341   -1.4189 C.ar     1 ZINC000064033452    0.0300
20     C20    -2.5760   -6.2149   -1.4768 C.ar     1 ZINC000064033452   -0.0700
21     C21     0.7524   -6.7765   -2.1442 C.3      1 ZINC000064033452   -0.1300
22     C22     1.0359   -7.3046   -0.7365 C.3      1 ZINC000064033452   -0.1500
23     N23    -0.6185   -3.0260    2.4545 N.ar     1 ZINC000064033452   -0.5000
24     C24    -0.6012   -1.7830    2.9189 C.ar     1 ZINC000064033452    0.2100
25     C25    -1.2167   -1.4816    4.2347 C.ar     1 ZINC000064033452   -0.0800
26     C26    -0.6554   -0.5090    5.0618 C.ar     1 ZINC000064033452   -0.1100
27     C27    -1.2261   -0.2258    6.2880 C.ar     1 ZINC000064033452   -0.1500
28     C28    -2.3547   -0.9024    6.7033 C.ar     1 ZINC000064033452   -0.0700
29     C29    -2.9270   -1.8800    5.8840 C.ar     1 ZINC000064033452   -0.1400
30     C30    -4.1336   -2.6040    6.3280 C.2      1 ZINC000064033452    0.5200
31     O31    -4.6345   -2.3493    7.4142 O.co2    1 ZINC000064033452   -0.6900
32     O32    -4.6328   -3.4588    5.6099 O.co2    1 ZINC000064033452   -0.6800
33     C33    -2.3576   -2.1646    4.6427 C.ar     1 ZINC000064033452   -0.0400
34     H34     0.8963    0.8140    3.2941 H        1 ZINC000064033452    0.0700
35     H35    -0.0308    1.3552    1.8743 H        1 ZINC000064033452    0.0600
36     H36    -0.8831    0.8119    3.3394 H        1 ZINC000064033452    0.0800
37     H37     1.0115   -0.2729    0.3574 H        1 ZINC000064033452    0.1400
38     H38     0.9566   -2.6184   -0.4535 H        1 ZINC000064033452    0.1700
39     H39    -0.2438   -5.3787    1.4731 H        1 ZINC000064033452    0.4200
40     H40    -0.9272   -8.6386    0.1940 H        1 ZINC000064033452    0.1500
41     H41    -3.2041   -9.5660    0.3134 H        1 ZINC000064033452    0.1500
42     H42    -2.3969   -5.2731   -1.9742 H        1 ZINC000064033452    0.1400
43     H43     0.3222   -7.4715   -2.8653 H        1 ZINC000064033452    0.1100
44     H44     1.4445   -6.0413   -2.5548 H        1 ZINC000064033452    0.1100
45     H45     1.9146   -6.9168   -0.2210 H        1 ZINC000064033452    0.1100
46     H46     0.7922   -8.3470   -0.5315 H        1 ZINC000064033452    0.1100
47     H47     0.2281    0.0242    4.7432 H        1 ZINC000064033452    0.1200
48     H48    -0.7867    0.5282    6.9242 H        1 ZINC000064033452    0.1200
49     H49    -2.7963   -0.6768    7.6627 H        1 ZINC000064033452    0.1300
50     H50    -2.7952   -2.9187    4.0053 H        1 ZINC000064033452    0.1300
@<TRIPOS>BOND
1     1     2     1
2     1     34    1
3     1     35    1
4     1     36    1
5     2     24    ar
6     2     3     ar
7     3     4     ar
8     3     37    1
9     4     5     ar
10    4     38    1
11    5     6     1
12    5     23    ar
13    6     7     am
14    6     39    1
15    7     8     2
16    7     9     1
17    9     22    1
18    9     10    1
19    9     21    1
20    10    20    ar
21    10    11    ar
22    11    12    ar
23    11    40    1
24    12    13    ar
25    12    41    1
26    13    19    ar
27    13    14    1
28    14    15    1
29    15    16    1
30    15    17    1
31    15    18    1
32    18    19    1
33    19    20    ar
34    20    42    1
35    21    22    1
36    21    43    1
37    21    44    1
38    22    45    1
39    22    46    1
40    23    24    ar
41    24    25    1
42    25    33    ar
43    25    26    ar
44    26    27    ar
45    26    47    1
46    27    28    ar
47    27    48    1
48    28    29    ar
49    28    49    1
50    29    30    1
51    29    33    ar
52    30    31    ar
53    30    32    ar
54    33    50    1
@<TRIPOS>SUBSTRUCTURE
1   ZINC000064033452 1     RESIDUE    1   A     ZIN   1
