@<TRIPOS>MOLECULE
ZINC000001530948
29    31    1     0     0
SMALL
USER_CHARGES
@<TRIPOS>ATOM
1      O1      0.1169    0.3858   -1.2819 O.2      1 ZINC000001530948   -0.4500
2      C2      0.0426    1.4036   -0.6234 C.2      1 ZINC000001530948    0.5800
3      C3     -1.1898    2.1795   -0.3704 C.ar     1 ZINC000001530948   -0.1400
4      C4     -2.5160    2.0384   -0.7453 C.ar     1 ZINC000001530948   -0.0400
5      C5     -3.4518    2.9715   -0.3258 C.ar     1 ZINC000001530948   -0.0900
6      C6     -3.0705    4.0404    0.4626 C.ar     1 ZINC000001530948   -0.0900
7      C7     -1.7467    4.1947    0.8451 C.ar     1 ZINC000001530948   -0.0400
8      C8     -0.8008    3.2697    0.4343 C.ar     1 ZINC000001530948   -0.1400
9      C9      0.6548    3.1193    0.6428 C.2      1 ZINC000001530948    0.5700
10     O10     1.3597    3.8689    1.2878 O.2      1 ZINC000001530948   -0.4600
11     N11     1.0671    2.0102    0.0027 N.am     1 ZINC000001530948   -0.5700
12     C12     2.4517    1.5320   -0.0188 C.3      1 ZINC000001530948    0.1200
13     H13     2.5679    0.7877   -0.8066 H        1 ZINC000001530948    0.1500
14     C14     2.7972    0.9028    1.3352 C.3      1 ZINC000001530948   -0.1400
15     C15     2.7345    1.9931    2.4101 C.3      1 ZINC000001530948   -0.1500
16     C16     3.6473    3.1253    2.0196 C.2      1 ZINC000001530948    0.5500
17     O17     4.1607    3.8007    2.8856 O.2      1 ZINC000001530948   -0.5000
18     N18     3.9037    3.4008    0.7321 N.am     1 ZINC000001530948   -0.6600
19     C19     3.3798    2.6890   -0.2788 C.2      1 ZINC000001530948    0.5200
20     O20     3.6598    2.9837   -1.4209 O.2      1 ZINC000001530948   -0.4800
21     H21    -2.8195    1.2053   -1.3619 H        1 ZINC000001530948    0.1500
22     H22    -4.4859    2.8623   -0.6175 H        1 ZINC000001530948    0.1500
23     H23    -3.8086    4.7608    0.7827 H        1 ZINC000001530948    0.1500
24     H24    -1.4543    5.0325    1.4608 H        1 ZINC000001530948    0.1500
25     H25     2.0780    0.1175    1.5680 H        1 ZINC000001530948    0.1100
26     H26     3.8024    0.4830    1.2978 H        1 ZINC000001530948    0.1100
27     H27     1.7124    2.3621    2.4955 H        1 ZINC000001530948    0.1100
28     H28     3.0548    1.5803    3.3668 H        1 ZINC000001530948    0.1200
29     H29     4.4911    4.1439    0.5227 H        1 ZINC000001530948    0.4200
@<TRIPOS>BOND
1     1     2     2
2     2     11    am
3     2     3     1
4     3     8     ar
5     3     4     ar
6     4     5     ar
7     4     21    1
8     5     6     ar
9     5     22    1
10    6     7     ar
11    6     23    1
12    7     8     ar
13    7     24    1
14    8     9     1
15    9     10    2
16    9     11    am
17    11    12    1
18    12    13    1
19    12    19    1
20    12    14    1
21    14    15    1
22    14    25    1
23    14    26    1
24    15    16    1
25    15    27    1
26    15    28    1
27    16    17    2
28    16    18    am
29    18    19    am
30    18    29    1
31    19    20    2
@<TRIPOS>SUBSTRUCTURE
1   ZINC000001530948 1     RESIDUE    1   A     ZIN   1
