@<TRIPOS>MOLECULE
ZINC000003798247
31   33    0    0    0
SMALL
USER_CHARGES
NO_NAME
@<TRIPOS>ATOM
1 N1       -0.0167     1.3796     0.0096 N.pl3  1 <0>      -0.8100
2 C2        0.0021    -0.0041     0.0020 C.ar   1 <0>       0.5300
3 C3       -1.1955    -0.7391     0.0036 C.ar   1 <0>      -0.1000
4 N4       -2.5114    -0.4160     0.0118 N.2    1 <0>      -0.4600
5 C5       -3.2246    -1.5044     0.0090 C.2    1 <0>       0.2800
6 N6       -2.4081    -2.5962    -0.0012 N.pl3  1 <0>      -0.4700
7 C7       -2.8348    -3.9977    -0.0072 C.3    1 <0>       0.2900
8 H8       -2.1494    -4.5910    -0.6126 H      1 <0>       0.1300
9 O9       -4.1677    -4.1006    -0.5354 O.3    1 <0>      -0.3400
10 C10      -4.8181    -5.1800     0.1692 C.3    1 <0>       0.0900
11 H11      -4.4974    -6.1441    -0.2253 H      1 <0>       0.1100
12 C12      -6.3393    -5.0422     0.0800 C.3    1 <0>       0.0900
13 O13      -6.7556    -5.2261    -1.2746 O.3    1 <0>      -0.5600
14 C14      -4.3352    -5.0004     1.6310 C.3    1 <0>       0.0600
15 H15      -4.9181    -4.2340     2.1418 H      1 <0>       0.1000
16 O16      -4.3910    -6.2386     2.3422 O.3    1 <0>      -0.5400
17 C17      -2.8663    -4.5420     1.4341 C.3    1 <0>       0.0200
18 H18      -2.1855    -5.3865     1.5412 H      1 <0>       0.1300
19 F19      -2.5414    -3.5336     2.3477 F      1 <0>      -0.1800
20 C20      -1.1136    -2.1417    -0.0049 C.ar   1 <0>       0.3200
21 N21       0.0834    -2.7191    -0.0141 N.ar   1 <0>      -0.5500
22 C22       1.1807    -1.9895    -0.0152 C.ar   1 <0>       0.4300
23 Cl23      2.7192    -2.7936    -0.0279 Cl     1 <0>       0.0400
24 N24       1.1532    -0.6682    -0.0125 N.ar   1 <0>      -0.5800
25 H25       0.8167     1.8760     0.0043 H      1 <0>       0.4100
26 H26      -0.8632     1.8531     0.0162 H      1 <0>       0.4200
27 H27      -4.3041    -1.5379     0.0144 H      1 <0>       0.2300
28 H28      -6.8100    -5.7967     0.7103 H      1 <0>       0.0800
29 H29      -6.6348    -4.0494     0.4193 H      1 <0>       0.0600
30 H30      -7.7108    -5.1522    -1.4061 H      1 <0>       0.3900
31 H31      -4.0986    -6.1775     3.2619 H      1 <0>       0.4000
@<TRIPOS>BOND
1    1    2 1
2    1   25 1
3    1   26 1
4    2   24 ar
5    2    3 ar
6    3   20 ar
7    3    4 1
8    4    5 2
9    5    6 1
10    5   27 1
11    6    7 1
12    6   20 1
13    7    8 1
14    7   17 1
15    7    9 1
16    9   10 1
17   10   11 1
18   10   12 1
19   10   14 1
20   12   13 1
21   12   28 1
22   12   29 1
23   13   30 1
24   14   15 1
25   14   16 1
26   14   17 1
27   16   31 1
28   17   18 1
29   17   19 1
30   20   21 ar
31   21   22 ar
32   22   23 1
33   22   24 ar
