@<TRIPOS>MOLECULE
ZINC000001530886
69    74    1     0     0
SMALL
USER_CHARGES
@<TRIPOS>ATOM
1      C1      1.2065    2.1524   -0.4131 C.3      1 ZINC000001530886   -0.1600
2      C2      0.9154    0.6513   -0.3602 C.3      1 ZINC000001530886   -0.1200
3      C3      1.3185    0.0065   -1.6878 C.3      1 ZINC000001530886   -0.0900
4      C4      1.0318   -1.4721   -1.6356 C.cat    1 ZINC000001530886    0.4100
5      N5     -0.1171   -2.0186   -1.9104 N.pl3    1 ZINC000001530886   -0.4900
6      H6     -0.9149   -1.5366   -2.1788 H        1 ZINC000001530886    0.4600
7      C7     -0.0296   -3.3646   -1.7652 C.ar     1 ZINC000001530886    0.0600
8      C8     -0.9440   -4.4109   -1.9291 C.ar     1 ZINC000001530886   -0.0300
9      C9     -2.3588   -4.1142   -2.3549 C.3      1 ZINC000001530886   -0.1300
10     C10    -0.5565   -5.6981   -1.7046 C.ar     1 ZINC000001530886   -0.0900
11     C11     0.7553   -5.9873   -1.3085 C.ar     1 ZINC000001530886    0.0300
12     C12     1.1613   -7.3878   -1.0686 C.2      1 ZINC000001530886    0.3000
13     N13     2.2024   -7.7611   -0.3647 N.2      1 ZINC000001530886   -0.4600
14     C14     2.2800   -9.1141   -0.3488 C.ar     1 ZINC000001530886    0.0500
15     C15     3.1718  -10.0179    0.2373 C.ar     1 ZINC000001530886   -0.0600
16     C16     2.9829  -11.3707    0.0694 C.ar     1 ZINC000001530886   -0.1200
17     C17     1.9143  -11.8458   -0.6773 C.ar     1 ZINC000001530886   -0.0900
18     C18     1.0254  -10.9689   -1.2628 C.ar     1 ZINC000001530886   -0.1100
19     C19     1.1984   -9.6015   -1.1043 C.ar     1 ZINC000001530886    0.0600
20     N20     0.5034   -8.4908   -1.5432 N.pl3    1 ZINC000001530886   -0.4800
21     C21    -0.7086   -8.4929   -2.3662 C.3      1 ZINC000001530886    0.0600
22     C22     1.6782   -4.9576   -1.1407 C.ar     1 ZINC000001530886   -0.0500
23     C23     1.2900   -3.6480   -1.3679 C.ar     1 ZINC000001530886    0.0900
24     N24     1.9373   -2.4293   -1.3003 N.pl3    1 ZINC000001530886   -0.4100
25     C25     3.3384   -2.2092   -0.9333 C.3      1 ZINC000001530886    0.1500
26     C26     4.1959   -2.2589   -2.1716 C.ar     1 ZINC000001530886   -0.1600
27     C27     4.7297   -3.4639   -2.5920 C.ar     1 ZINC000001530886   -0.0900
28     C28     5.5156   -3.5157   -3.7251 C.ar     1 ZINC000001530886   -0.1100
29     C29     5.7708   -2.3502   -4.4470 C.ar     1 ZINC000001530886    0.0300
30     C30     6.6134   -2.3992   -5.6647 C.ar     1 ZINC000001530886   -0.0600
31     C31     7.9039   -2.9160   -5.6029 C.ar     1 ZINC000001530886   -0.1100
32     C32     8.6858   -2.9603   -6.7402 C.ar     1 ZINC000001530886   -0.1300
33     C33     8.1955   -2.4923   -7.9482 C.ar     1 ZINC000001530886   -0.1200
34     C34     6.9193   -1.9761   -8.0310 C.ar     1 ZINC000001530886   -0.1000
35     C35     6.1113   -1.9283   -6.8931 C.ar     1 ZINC000001530886   -0.1000
36     C36     4.7473   -1.3788   -6.9748 C.2      1 ZINC000001530886    0.5300
37     O37     3.7999   -2.0285   -6.5543 O.co2    1 ZINC000001530886   -0.6800
38     O38     4.5617   -0.2727   -7.4632 O.co2    1 ZINC000001530886   -0.6800
39     C39     5.2295   -1.1386   -4.0185 C.ar     1 ZINC000001530886   -0.0800
40     C40     4.4412   -1.1002   -2.8866 C.ar     1 ZINC000001530886   -0.0900
41     H41     2.2712    2.3102   -0.5852 H        1 ZINC000001530886    0.0700
42     H42     0.6363    2.6047   -1.2246 H        1 ZINC000001530886    0.0700
43     H43     0.9192    2.6118    0.5327 H        1 ZINC000001530886    0.0700
44     H44     1.4855    0.1991    0.4513 H        1 ZINC000001530886    0.0800
45     H45    -0.1493    0.4935   -0.1881 H        1 ZINC000001530886    0.0700
46     H46     0.7484    0.4587   -2.4993 H        1 ZINC000001530886    0.1300
47     H47     2.3832    0.1643   -1.8598 H        1 ZINC000001530886    0.1300
48     H48    -2.4219   -4.1312   -3.4430 H        1 ZINC000001530886    0.0900
49     H49    -3.0286   -4.8675   -1.9403 H        1 ZINC000001530886    0.0900
50     H50    -2.6492   -3.1292   -1.9895 H        1 ZINC000001530886    0.0700
51     H51    -1.2668   -6.5015   -1.8328 H        1 ZINC000001530886    0.1600
52     H52     4.0063   -9.6555    0.8194 H        1 ZINC000001530886    0.1300
53     H53     3.6720  -12.0681    0.5224 H        1 ZINC000001530886    0.1300
54     H54     1.7780  -12.9100   -0.8014 H        1 ZINC000001530886    0.1300
55     H55     0.1959  -11.3457   -1.8427 H        1 ZINC000001530886    0.1300
56     H56    -1.5863   -8.4696   -1.7204 H        1 ZINC000001530886    0.0800
57     H57    -0.7100   -7.6157   -3.0132 H        1 ZINC000001530886    0.0900
58     H58    -0.7311   -9.3952   -2.9774 H        1 ZINC000001530886    0.0900
59     H59     2.6900   -5.1792   -0.8349 H        1 ZINC000001530886    0.1600
60     H60     3.4408   -1.2330   -0.4594 H        1 ZINC000001530886    0.1200
61     H61     3.6583   -2.9857   -0.2385 H        1 ZINC000001530886    0.1300
62     H62     4.5313   -4.3658   -2.0321 H        1 ZINC000001530886    0.1200
63     H63     5.9324   -4.4569   -4.0519 H        1 ZINC000001530886    0.1300
64     H64     8.2942   -3.2824   -4.6650 H        1 ZINC000001530886    0.1200
65     H65     9.6868   -3.3623   -6.6874 H        1 ZINC000001530886    0.1200
66     H66     8.8168   -2.5315   -8.8307 H        1 ZINC000001530886    0.1200
67     H67     6.5435   -1.6130   -8.9762 H        1 ZINC000001530886    0.1200
68     H68     5.4240   -0.2327   -4.5734 H        1 ZINC000001530886    0.1300
69     H69     4.0211   -0.1625   -2.5540 H        1 ZINC000001530886    0.1200
@<TRIPOS>BOND
1     1     2     1
2     1     41    1
3     1     42    1
4     1     43    1
5     2     3     1
6     2     44    1
7     2     45    1
8     3     4     1
9     3     46    1
10    3     47    1
11    4     24    ar
12    4     5     ar
13    5     6     1
14    5     7     1
15    7     23    ar
16    7     8     ar
17    8     9     1
18    8     10    ar
19    9     48    1
20    9     49    1
21    9     50    1
22    10    11    ar
23    10    51    1
24    11    12    1
25    11    22    ar
26    12    20    1
27    12    13    2
28    13    14    1
29    14    19    ar
30    14    15    ar
31    15    16    ar
32    15    52    1
33    16    17    ar
34    16    53    1
35    17    18    ar
36    17    54    1
37    18    19    ar
38    18    55    1
39    19    20    1
40    20    21    1
41    21    56    1
42    21    57    1
43    21    58    1
44    22    23    ar
45    22    59    1
46    23    24    1
47    24    25    1
48    25    26    1
49    25    60    1
50    25    61    1
51    26    40    ar
52    26    27    ar
53    27    28    ar
54    27    62    1
55    28    29    ar
56    28    63    1
57    29    30    1
58    29    39    ar
59    30    35    ar
60    30    31    ar
61    31    32    ar
62    31    64    1
63    32    33    ar
64    32    65    1
65    33    34    ar
66    33    66    1
67    34    35    ar
68    34    67    1
69    35    36    1
70    36    37    ar
71    36    38    ar
72    39    40    ar
73    39    68    1
74    40    69    1
@<TRIPOS>SUBSTRUCTURE
1   ZINC000001530886 1     RESIDUE    1   A     ZIN   1
