@<TRIPOS>MOLECULE
ZINC000001530567
52    53    1     0     0
SMALL
USER_CHARGES
@<TRIPOS>ATOM
1      C1     -0.0187    1.5258    0.0104 C.3      1 ZINC000001530567   -0.1900
2      C2      0.0021   -0.0041    0.0020 C.3      1 ZINC000001530567    0.0200
3      C3      0.7421   -0.5109    1.2415 C.3      1 ZINC000001530567   -0.1900
4      N4     -1.3761   -0.5125    0.0124 N.4      1 ZINC000001530567   -0.5000
5      H5     -1.8225   -0.2564    0.8803 H        1 ZINC000001530567    0.4300
6      H6     -1.8879   -0.1129   -0.7598 H        1 ZINC000001530567    0.4300
7      C7     -1.3591   -1.9758   -0.1163 C.3      1 ZINC000001530567   -0.0500
8      C8     -2.7945   -2.5054   -0.1054 C.3      1 ZINC000001530567    0.0900
9      H9     -3.3474   -2.0736   -0.9397 H        1 ZINC000001530567    0.1400
10     O10    -3.4268   -2.1426    1.1237 O.3      1 ZINC000001530567   -0.5400
11     C11    -2.7769   -4.0294   -0.2395 C.3      1 ZINC000001530567    0.0300
12     O12    -4.1170   -4.5137   -0.3465 O.3      1 ZINC000001530567   -0.3000
13     C13    -4.2793   -5.8570   -0.4731 C.ar     1 ZINC000001530567    0.1200
14     C14    -3.1718   -6.6923   -0.4883 C.ar     1 ZINC000001530567   -0.2100
15     C15    -3.3395   -8.0575   -0.6168 C.ar     1 ZINC000001530567   -0.0700
16     C16    -4.6098   -8.5915   -0.7305 C.ar     1 ZINC000001530567   -0.1100
17     C17    -4.7897  -10.0812   -0.8710 C.3      1 ZINC000001530567   -0.0800
18     C18    -4.9261  -10.7115    0.5164 C.3      1 ZINC000001530567    0.0700
19     O19    -5.0968  -12.1240    0.3833 O.3      1 ZINC000001530567   -0.3900
20     C20    -5.2345  -12.8127    1.6277 C.3      1 ZINC000001530567    0.1000
21     C21    -5.4104  -14.3097    1.3654 C.3      1 ZINC000001530567   -0.1600
22     C22    -4.3232  -15.2510    1.8880 C.3      1 ZINC000001530567   -0.1800
23     C23    -5.6921  -15.2098    2.5702 C.3      1 ZINC000001530567   -0.1700
24     C24    -5.7152   -7.7612   -0.7152 C.ar     1 ZINC000001530567   -0.0700
25     C25    -5.5531   -6.3958   -0.5817 C.ar     1 ZINC000001530567   -0.1400
26     H26     1.0039    1.9031    0.0027 H        1 ZINC000001530567    0.1100
27     H27    -0.5459    1.8868   -0.8726 H        1 ZINC000001530567    0.0800
28     H28    -0.5289    1.8773    0.9072 H        1 ZINC000001530567    0.0800
29     H29     0.5123   -0.3556   -0.8948 H        1 ZINC000001530567    0.1400
30     H30     0.2319   -0.1594    2.1383 H        1 ZINC000001530567    0.0800
31     H31     0.7568   -1.6008    1.2356 H        1 ZINC000001530567    0.0800
32     H32     1.7647   -0.1336    1.2338 H        1 ZINC000001530567    0.1100
33     H33    -0.8769   -2.2525   -1.0538 H        1 ZINC000001530567    0.1500
34     H34    -0.8062   -2.4075    0.7180 H        1 ZINC000001530567    0.1400
35     H35    -2.9873   -2.4932    1.9105 H        1 ZINC000001530567    0.3900
36     H36    -2.2171   -4.3091   -1.1320 H        1 ZINC000001530567    0.0800
37     H37    -2.3018   -4.4659    0.6390 H        1 ZINC000001530567    0.0800
38     H38    -2.1793   -6.2756   -0.4002 H        1 ZINC000001530567    0.1200
39     H39    -2.4776   -8.7082   -0.6286 H        1 ZINC000001530567    0.1300
40     H40    -5.6886  -10.2853   -1.4528 H        1 ZINC000001530567    0.0800
41     H41    -3.9239  -10.5054   -1.3793 H        1 ZINC000001530567    0.0800
42     H42    -4.0273  -10.5073    1.0982 H        1 ZINC000001530567    0.0500
43     H43    -5.7920  -10.2872    1.0247 H        1 ZINC000001530567    0.0500
44     H44    -4.3421  -12.6522    2.2326 H        1 ZINC000001530567    0.0500
45     H45    -6.1068  -12.4320    2.1591 H        1 ZINC000001530567    0.0500
46     H46    -5.8892  -14.5685    0.4210 H        1 ZINC000001530567    0.1100
47     H47    -4.0865  -16.1292    1.2873 H        1 ZINC000001530567    0.1000
48     H48    -3.4828  -14.8037    2.4187 H        1 ZINC000001530567    0.0900
49     H49    -5.7522  -14.7354    3.5497 H        1 ZINC000001530567    0.1000
50     H50    -6.3560  -16.0608    2.4183 H        1 ZINC000001530567    0.1000
51     H51    -6.7064   -8.1808   -0.8039 H        1 ZINC000001530567    0.1400
52     H52    -6.4169   -5.7476   -0.5698 H        1 ZINC000001530567    0.1300
@<TRIPOS>BOND
1     1     2     1
2     1     26    1
3     1     27    1
4     1     28    1
5     2     3     1
6     2     4     1
7     2     29    1
8     3     30    1
9     3     31    1
10    3     32    1
11    4     5     1
12    4     6     1
13    4     7     1
14    7     8     1
15    7     33    1
16    7     34    1
17    8     9     1
18    8     10    1
19    8     11    1
20    10    35    1
21    11    12    1
22    11    36    1
23    11    37    1
24    12    13    1
25    13    25    ar
26    13    14    ar
27    14    15    ar
28    14    38    1
29    15    16    ar
30    15    39    1
31    16    17    1
32    16    24    ar
33    17    18    1
34    17    40    1
35    17    41    1
36    18    19    1
37    18    42    1
38    18    43    1
39    19    20    1
40    20    21    1
41    20    44    1
42    20    45    1
43    21    23    1
44    21    22    1
45    21    46    1
46    22    23    1
47    22    47    1
48    22    48    1
49    23    49    1
50    23    50    1
51    24    25    ar
52    24    51    1
53    25    52    1
@<TRIPOS>SUBSTRUCTURE
1   ZINC000001530567 1     RESIDUE    1   A     ZIN   1
