@<TRIPOS>MOLECULE
ZINC000004632106
32   33    0    0    0
SMALL
USER_CHARGES
NO_NAME
@<TRIPOS>ATOM
1 C1       -0.5182     1.2033    -0.3104 C.3    1 <0>      -0.1300
2 C2       -0.2726    -0.2752    -0.1526 C.ar   1 <0>      -0.0700
3 C3       -0.3044    -1.1029    -1.2590 C.ar   1 <0>      -0.1000
4 C4       -0.0791    -2.4593    -1.1142 C.ar   1 <0>      -0.1100
5 C5        0.1784    -2.9874     0.1368 C.ar   1 <0>      -0.1300
6 C6        0.2111    -2.1593     1.2434 C.ar   1 <0>      -0.1000
7 C7        0.4914    -2.7352     2.6075 C.3    1 <0>       0.0100
8 H8        0.5946    -1.9253     3.3297 H      1 <0>       0.1100
9 C9        1.7879    -3.5463     2.5621 C.3    1 <0>      -0.1500
10 C10      -0.6481    -3.6319     3.0180 C.2    1 <0>       0.0400
11 C11      -1.3516    -4.4409     2.2030 C.2    1 <0>       0.0300
12 N12      -2.2853    -5.0714     2.9805 N.pl3  1 <0>      -0.5100
13 C13      -2.1196    -4.6255     4.2444 C.cat  1 <0>       0.3000
14 N14      -1.1355    -3.7686     4.2601 N.pl3  1 <0>      -0.4700
15 H15      -0.8112    -3.3004     5.0452 H      1 <0>       0.4600
16 C16      -0.0099    -0.8027     1.0981 C.ar   1 <0>      -0.0700
17 C17       0.0258     0.1000     2.3043 C.3    1 <0>      -0.1300
18 H18       0.4283     1.7111    -0.4959 H      1 <0>       0.0800
19 H19      -1.1918     1.3721    -1.1505 H      1 <0>       0.0700
20 H20      -0.9687     1.5961     0.6011 H      1 <0>       0.0700
21 H21      -0.5056    -0.6902    -2.2365 H      1 <0>       0.1300
22 H22      -0.1047    -3.1062    -1.9787 H      1 <0>       0.1300
23 H23       0.3537    -4.0471     0.2500 H      1 <0>       0.1200
24 H24       1.6846    -4.3562     1.8400 H      1 <0>       0.0700
25 H25       2.6120    -2.8977     2.2652 H      1 <0>       0.0800
26 H26       1.9906    -3.9629     3.5488 H      1 <0>       0.0700
27 H27      -1.2072    -4.5676     1.1403 H      1 <0>       0.2200
28 H28      -2.9430    -5.7178     2.6797 H      1 <0>       0.4700
29 H29      -2.7024    -4.9306     5.1009 H      1 <0>       0.2700
30 H30       1.0545     0.4007     2.5028 H      1 <0>       0.0800
31 H31      -0.5812     0.9852     2.1138 H      1 <0>       0.0800
32 H32      -0.3702    -0.4329     3.1688 H      1 <0>       0.0600
@<TRIPOS>BOND
1    1    2 1
2    1   18 1
3    1   19 1
4    1   20 1
5    2   16 ar
6    2    3 ar
7    3    4 ar
8    3   21 1
9    4    5 ar
10    4   22 1
11    5    6 ar
12    5   23 1
13    6    7 1
14    6   16 ar
15    7    8 1
16    7    9 1
17    7   10 1
18    9   24 1
19    9   25 1
20    9   26 1
21   10   14 1
22   10   11 2
23   11   12 1
24   11   27 1
25   12   13 ar
26   12   28 1
27   13   14 ar
28   13   29 1
29   14   15 1
30   16   17 1
31   17   30 1
32   17   31 1
33   17   32 1
