@<TRIPOS>MOLECULE
ZINC000000001411
24   24    0    0    0
SMALL
USER_CHARGES
NO_NAME
@<TRIPOS>ATOM
1 C1       -0.0157     1.3058     0.0092 C.2    1 <0>      -0.1900
2 C2        0.0021    -0.0041     0.0020 C.2    1 <0>      -0.1500
3 C3       -1.2926    -0.7753     0.0102 C.3    1 <0>      -0.0600
4 C4       -1.3183    -1.7262    -1.1586 C.ar   1 <0>      -0.0500
5 C5       -1.8335    -1.3128    -2.3726 C.ar   1 <0>      -0.1400
6 C6       -1.8597    -2.1818    -3.4480 C.ar   1 <0>      -0.1000
7 C7       -1.3685    -3.4696    -3.3099 C.ar   1 <0>       0.0700
8 O8       -1.3932    -4.3253    -4.3666 O.3    1 <0>      -0.4900
9 C9       -0.8492    -3.8858    -2.0874 C.ar   1 <0>       0.1100
10 O10      -0.3654    -5.1490    -1.9470 O.3    1 <0>      -0.3100
11 C11       0.1520    -5.5067    -0.6639 C.3    1 <0>       0.0200
12 C12      -0.8212    -3.0087    -1.0156 C.ar   1 <0>      -0.1900
13 H13       0.9122     1.8585     0.0033 H      1 <0>       0.1000
14 H14      -0.9582     1.8330     0.0166 H      1 <0>       0.1000
15 H15       0.9446    -0.5313    -0.0098 H      1 <0>       0.1100
16 H16      -1.3737    -1.3393     0.9394 H      1 <0>       0.0800
17 H17      -2.1295    -0.0812    -0.0676 H      1 <0>       0.0800
18 H18      -2.2168    -0.3090    -2.4815 H      1 <0>       0.1300
19 H19      -2.2635    -1.8565    -4.3954 H      1 <0>       0.1400
20 H20      -0.5989    -4.2934    -4.9172 H      1 <0>       0.3900
21 H21       0.5043    -6.5379    -0.6888 H      1 <0>       0.1000
22 H22       0.9804    -4.8457    -0.4090 H      1 <0>       0.0600
23 H23      -0.6341    -5.4093     0.0849 H      1 <0>       0.0600
24 H24      -0.4188    -3.3291    -0.0659 H      1 <0>       0.1300
@<TRIPOS>BOND
1    1    2 2
2    1   13 1
3    1   14 1
4    2    3 1
5    2   15 1
6    3    4 1
7    3   16 1
8    3   17 1
9    4   12 ar
10    4    5 ar
11    5    6 ar
12    5   18 1
13    6    7 ar
14    6   19 1
15    7    8 1
16    7    9 ar
17    8   20 1
18    9   10 1
19    9   12 ar
20   10   11 1
21   11   21 1
22   11   22 1
23   11   23 1
24   12   24 1
