@<TRIPOS>MOLECULE
ZINC000001489478
43    45    1     0     0
SMALL
USER_CHARGES
@<TRIPOS>ATOM
1      N1     -0.0178    1.4648    0.0101 N.3      1 ZINC000001489478   -0.8300
2      C2      0.0021   -0.0041    0.0020 C.3      1 ZINC000001489478    0.1100
3      H3      0.5890   -0.3641    0.8470 H        1 ZINC000001489478    0.0900
4      C4     -1.4289   -0.5341    0.1123 C.3      1 ZINC000001489478   -0.1400
5      C5     -2.0049   -0.1506    1.4510 C.2      1 ZINC000001489478    0.5300
6      O6     -1.3367    0.4842    2.2393 O.2      1 ZINC000001489478   -0.4900
7      N7     -3.2626   -0.5130    1.7723 N.am     1 ZINC000001489478   -0.6300
8      C8     -3.8476   -0.1446    3.0705 C.3      1 ZINC000001489478    0.1000
9      C9     -5.0454    0.7844    2.8397 C.3      1 ZINC000001489478    0.0700
10     N10    -5.8761    0.2396    1.7668 N.pl3    1 ZINC000001489478   -0.4400
11     C11    -5.4726   -0.6805    0.8543 C.2      1 ZINC000001489478    0.1900
12     N12    -6.4729   -0.9095    0.0607 N.2      1 ZINC000001489478   -0.2600
13     N13    -7.4813   -0.1930    0.4241 N.2      1 ZINC000001489478   -0.2200
14     C14    -7.1590    0.5259    1.4685 C.2      1 ZINC000001489478    0.0800
15     C15    -8.0541    1.4922    2.2008 C.3      1 ZINC000001489478    0.5700
16     F16    -9.3837    1.2724    1.8254 F        1 ZINC000001489478   -0.1400
17     F17    -7.9208    1.2979    3.5799 F        1 ZINC000001489478   -0.1600
18     F18    -7.6888    2.8032    1.8772 F        1 ZINC000001489478   -0.1600
19     C19    -4.0939   -1.2853    0.8295 C.3      1 ZINC000001489478    0.2000
20     C20     0.6299   -0.4984   -1.3027 C.3      1 ZINC000001489478   -0.1200
21     C21     2.0767   -0.0798   -1.3542 C.ar     1 ZINC000001489478   -0.1000
22     C22     2.4354    1.0867   -2.0026 C.ar     1 ZINC000001489478   -0.1000
23     C23     3.7638    1.4719   -2.0509 C.ar     1 ZINC000001489478    0.0700
24     F24     4.1141    2.6124   -2.6848 F        1 ZINC000001489478   -0.1200
25     C25     4.7350    0.6873   -1.4481 C.ar     1 ZINC000001489478    0.1000
26     F26     6.0320    1.0626   -1.4943 F        1 ZINC000001489478   -0.1200
27     C27     4.3749   -0.4806   -0.7986 C.ar     1 ZINC000001489478   -0.1600
28     C28     3.0451   -0.8613   -0.7469 C.ar     1 ZINC000001489478    0.1300
29     F29     2.6931   -2.0010   -0.1126 F        1 ZINC000001489478   -0.1200
30     H30     0.9191    1.8392    0.0032 H        1 ZINC000001489478    0.3500
31     H31    -0.5563    1.8234   -0.7642 H        1 ZINC000001489478    0.3400
32     H32    -2.0382   -0.1034   -0.6823 H        1 ZINC000001489478    0.1000
33     H33    -1.4225   -1.6200    0.0171 H        1 ZINC000001489478    0.1100
34     H34    -4.1793   -1.0444    3.5887 H        1 ZINC000001489478    0.0900
35     H35    -3.0995    0.3691    3.6742 H        1 ZINC000001489478    0.1300
36     H36    -5.6331    0.8552    3.7550 H        1 ZINC000001489478    0.1200
37     H37    -4.6890    1.7749    2.5572 H        1 ZINC000001489478    0.1100
38     H38    -3.6781   -1.2223   -0.1761 H        1 ZINC000001489478    0.1300
39     H39    -4.1384   -2.3261    1.1503 H        1 ZINC000001489478    0.1100
40     H40     0.5644   -1.5855   -1.3484 H        1 ZINC000001489478    0.0900
41     H41     0.0963   -0.0663   -2.1493 H        1 ZINC000001489478    0.0900
42     H42     1.6787    1.6979   -2.4721 H        1 ZINC000001489478    0.1600
43     H43     5.1307   -1.0926   -0.3289 H        1 ZINC000001489478    0.1600
@<TRIPOS>BOND
1     1     2     1
2     1     30    1
3     1     31    1
4     2     3     1
5     2     4     1
6     2     20    1
7     4     5     1
8     4     32    1
9     4     33    1
10    5     6     2
11    5     7     am
12    7     19    1
13    7     8     1
14    8     9     1
15    8     34    1
16    8     35    1
17    9     10    1
18    9     36    1
19    9     37    1
20    10    14    1
21    10    11    1
22    11    12    2
23    11    19    1
24    12    13    1
25    13    14    2
26    14    15    1
27    15    16    1
28    15    17    1
29    15    18    1
30    19    38    1
31    19    39    1
32    20    21    1
33    20    40    1
34    20    41    1
35    21    28    ar
36    21    22    ar
37    22    23    ar
38    22    42    1
39    23    24    1
40    23    25    ar
41    25    26    1
42    25    27    ar
43    27    28    ar
44    27    43    1
45    28    29    1
@<TRIPOS>SUBSTRUCTURE
1   ZINC000001489478 1     RESIDUE    1   A     ZIN   1
