@<TRIPOS>MOLECULE
ZINC000001530637
41    42    1     0     0
SMALL
USER_CHARGES
@<TRIPOS>ATOM
1      C1      0.5759    0.9608    0.4849 C.3      1 ZINC000001530637   -0.0500
2      N2      0.3666   -0.4865    0.3454 N.4      1 ZINC000001530637   -0.5100
3      H3      0.8267   -0.8138   -0.4909 H        1 ZINC000001530637    0.4300
4      H4      0.7514   -0.9610    1.1485 H        1 ZINC000001530637    0.4300
5      C5     -1.0725   -0.7667    0.2542 C.3      1 ZINC000001530637   -0.0100
6      C6     -1.2904   -2.2741    0.1089 C.3      1 ZINC000001530637   -0.1400
7      C7     -2.7893   -2.5659    0.0139 C.3      1 ZINC000001530637    0.1400
8      H8     -3.2219   -1.9838   -0.7998 H        1 ZINC000001530637    0.0900
9      O9     -3.4230   -2.2092    1.2440 O.3      1 ZINC000001530637   -0.3000
10     C10    -4.7484   -1.9136    1.1923 C.ar     1 ZINC000001530637    0.1500
11     C11    -5.4013   -1.4483    2.3245 C.ar     1 ZINC000001530637   -0.1500
12     C12    -6.7486   -1.1481    2.2692 C.ar     1 ZINC000001530637   -0.0300
13     C13    -7.4465   -1.3115    1.0868 C.ar     1 ZINC000001530637   -0.2100
14     C14    -8.9163   -0.9837    1.0294 C.3      1 ZINC000001530637    0.5100
15     F15    -9.0812    0.3580    0.6691 F        1 ZINC000001530637   -0.1800
16     F16    -9.5397   -1.8014    0.0807 F        1 ZINC000001530637   -0.1800
17     F17    -9.4925   -1.2036    2.2852 F        1 ZINC000001530637   -0.1700
18     C18    -6.7980   -1.7747   -0.0431 C.ar     1 ZINC000001530637   -0.0300
19     C19    -5.4497   -2.0713    0.0056 C.ar     1 ZINC000001530637   -0.2000
20     C20    -2.9994   -4.0343   -0.2520 C.ar     1 ZINC000001530637   -0.1400
21     C21    -3.0320   -4.9296    0.8007 C.ar     1 ZINC000001530637   -0.0900
22     C22    -3.2247   -6.2766    0.5568 C.ar     1 ZINC000001530637   -0.1200
23     C23    -3.3851   -6.7282   -0.7398 C.ar     1 ZINC000001530637   -0.1000
24     C24    -3.3534   -5.8328   -1.7925 C.ar     1 ZINC000001530637   -0.1200
25     C25    -3.1650   -4.4853   -1.5482 C.ar     1 ZINC000001530637   -0.1100
26     H26     1.6437    1.1687    0.5526 H        1 ZINC000001530637    0.1300
27     H27     0.1602    1.4733   -0.3827 H        1 ZINC000001530637    0.1200
28     H28     0.0789    1.3143    1.3883 H        1 ZINC000001530637    0.1200
29     H29    -1.5695   -0.4132    1.1576 H        1 ZINC000001530637    0.1400
30     H30    -1.4882   -0.2542   -0.6134 H        1 ZINC000001530637    0.1300
31     H31    -0.7935   -2.6277   -0.7945 H        1 ZINC000001530637    0.1100
32     H32    -0.8748   -2.7866    0.9765 H        1 ZINC000001530637    0.1000
33     H33    -4.8567   -1.3212    3.2484 H        1 ZINC000001530637    0.1400
34     H34    -7.2573   -0.7859    3.1503 H        1 ZINC000001530637    0.1500
35     H35    -7.3453   -1.9011   -0.9656 H        1 ZINC000001530637    0.1400
36     H36    -4.9436   -2.4330   -0.8772 H        1 ZINC000001530637    0.1400
37     H37    -2.9067   -4.5768    1.8137 H        1 ZINC000001530637    0.1300
38     H38    -3.2495   -6.9761    1.3792 H        1 ZINC000001530637    0.1300
39     H39    -3.5349   -7.7806   -0.9304 H        1 ZINC000001530637    0.1300
40     H40    -3.4784   -6.1857   -2.8055 H        1 ZINC000001530637    0.1300
41     H41    -3.1402   -3.7857   -2.3707 H        1 ZINC000001530637    0.1200
@<TRIPOS>BOND
1     1     2     1
2     1     26    1
3     1     27    1
4     1     28    1
5     2     3     1
6     2     4     1
7     2     5     1
8     5     6     1
9     5     29    1
10    5     30    1
11    6     7     1
12    6     31    1
13    6     32    1
14    7     8     1
15    7     9     1
16    7     20    1
17    9     10    1
18    10    19    ar
19    10    11    ar
20    11    12    ar
21    11    33    1
22    12    13    ar
23    12    34    1
24    13    14    1
25    13    18    ar
26    14    15    1
27    14    16    1
28    14    17    1
29    18    19    ar
30    18    35    1
31    19    36    1
32    20    25    ar
33    20    21    ar
34    21    22    ar
35    21    37    1
36    22    23    ar
37    22    38    1
38    23    24    ar
39    23    39    1
40    24    25    ar
41    24    40    1
42    25    41    1
@<TRIPOS>SUBSTRUCTURE
1   ZINC000001530637 1     RESIDUE    1   A     ZIN   1
