@<TRIPOS>MOLECULE
ZINC000004474682
70    71    1     0     0
SMALL
USER_CHARGES
@<TRIPOS>ATOM
1      C1     -0.5511    1.9735   -0.7696 C.3      1 ZINC000004474682   -0.1500
2      C2     -0.3755    0.4536   -0.7700 C.3      1 ZINC000004474682    0.0800
3      C3      0.5958    0.0521    0.3418 C.3      1 ZINC000004474682   -0.1700
4      O4     -1.6610   -0.1822   -0.5426 O.3      1 ZINC000004474682   -0.3600
5      C5     -1.8489   -1.3912   -1.0945 C.2      1 ZINC000004474682    0.4600
6      O6     -0.9685   -1.9014   -1.7460 O.2      1 ZINC000004474682   -0.5100
7      C7     -3.1580   -2.1124   -0.9015 C.3      1 ZINC000004474682   -0.1100
8      C8     -3.1109   -3.4582   -1.6277 C.3      1 ZINC000004474682   -0.1000
9      C9     -4.4400   -4.1903   -1.4317 C.3      1 ZINC000004474682   -0.1000
10     C10    -4.3935   -5.5160   -2.1470 C.2      1 ZINC000004474682   -0.1700
11     C11    -4.6950   -6.6174   -1.5052 C.2      1 ZINC000004474682   -0.1400
12     C12    -5.2507   -6.5463   -0.1062 C.3      1 ZINC000004474682   -0.0800
13     C13    -6.5623   -7.3312   -0.0378 C.3      1 ZINC000004474682   -0.0700
14     H14    -7.2514   -6.9734   -0.8028 H        1 ZINC000004474682    0.0900
15     C15    -7.1977   -7.1777    1.3595 C.3      1 ZINC000004474682   -0.0500
16     H16    -6.4359   -6.9356    2.1005 H        1 ZINC000004474682    0.0900
17     C17    -8.2677   -6.1167    1.3387 C.2      1 ZINC000004474682   -0.1200
18     C18    -8.1613   -5.0641    2.1112 C.2      1 ZINC000004474682   -0.2000
19     C19    -9.2313   -4.0030    2.0904 C.3      1 ZINC000004474682    0.1400
20     H20    -8.8121   -3.0717    1.7096 H        1 ZINC000004474682    0.1200
21     O21   -10.3032   -4.4240    1.2443 O.3      1 ZINC000004474682   -0.5500
22     C22    -9.7583   -3.7823    3.5097 C.3      1 ZINC000004474682    0.0300
23     O23   -10.6881   -2.6971    3.5092 O.3      1 ZINC000004474682   -0.3000
24     C24   -11.2534   -2.3685    4.7006 C.ar     1 ZINC000004474682    0.1300
25     C25   -10.9158   -3.0720    5.8473 C.ar     1 ZINC000004474682   -0.1800
26     C26   -11.4915   -2.7356    7.0574 C.ar     1 ZINC000004474682   -0.0800
27     C27   -12.4037   -1.6991    7.1258 C.ar     1 ZINC000004474682   -0.1100
28     C28   -12.7423   -0.9964    5.9839 C.ar     1 ZINC000004474682   -0.1400
29     C29   -13.7374    0.1327    6.0619 C.3      1 ZINC000004474682    0.5100
30     F30   -14.1748    0.2783    7.3828 F        1 ZINC000004474682   -0.1700
31     F31   -13.1301    1.3196    5.6383 F        1 ZINC000004474682   -0.1700
32     F32   -14.8310   -0.1518    5.2372 F        1 ZINC000004474682   -0.1700
33     C33   -12.1648   -1.3248    4.7729 C.ar     1 ZINC000004474682   -0.1000
34     C34    -7.8148   -8.5682    1.6509 C.3      1 ZINC000004474682    0.1100
35     H35    -8.7756   -8.6775    1.1480 H        1 ZINC000004474682    0.0700
36     O36    -7.9552   -8.7751    3.0578 O.3      1 ZINC000004474682   -0.5600
37     C37    -6.7677   -9.5393    1.0510 C.3      1 ZINC000004474682   -0.1900
38     C38    -6.2890   -8.8325   -0.2352 C.3      1 ZINC000004474682    0.1100
39     H39    -6.8460   -9.2046   -1.0951 H        1 ZINC000004474682    0.0600
40     O40    -4.8903   -9.0556   -0.4247 O.3      1 ZINC000004474682   -0.5500
41     H41     0.4138    2.4508   -0.9404 H        1 ZINC000004474682    0.0800
42     H42    -1.2431    2.2595   -1.5617 H        1 ZINC000004474682    0.0600
43     H43    -0.9492    2.2930    0.1935 H        1 ZINC000004474682    0.0700
44     H44     0.0225    0.1341   -1.7332 H        1 ZINC000004474682    0.0800
45     H45     1.5608    0.5294    0.1711 H        1 ZINC000004474682    0.0800
46     H46     0.1978    0.3716    1.3049 H        1 ZINC000004474682    0.0700
47     H47     0.7210   -1.0307    0.3415 H        1 ZINC000004474682    0.0600
48     H48    -3.3275   -2.2792    0.1623 H        1 ZINC000004474682    0.1100
49     H49    -3.9690   -1.5083   -1.3082 H        1 ZINC000004474682    0.1100
50     H50    -2.9414   -3.2914   -2.6914 H        1 ZINC000004474682    0.0700
51     H51    -2.2999   -4.0623   -1.2209 H        1 ZINC000004474682    0.0700
52     H52    -4.6094   -4.3572   -0.3680 H        1 ZINC000004474682    0.0800
53     H53    -5.2509   -3.5862   -1.8385 H        1 ZINC000004474682    0.0700
54     H54    -4.1116   -5.5579   -3.1887 H        1 ZINC000004474682    0.1100
55     H55    -4.5454   -7.5765   -1.9787 H        1 ZINC000004474682    0.1200
56     H56    -4.5329   -6.9767    0.5922 H        1 ZINC000004474682    0.0800
57     H57    -5.4359   -5.5054    0.1587 H        1 ZINC000004474682    0.0700
58     H58    -9.1221   -6.2241    0.6869 H        1 ZINC000004474682    0.1200
59     H59    -7.3069   -4.9567    2.7630 H        1 ZINC000004474682    0.1200
60     H60   -10.7243   -5.2484    1.5238 H        1 ZINC000004474682    0.3800
61     H61   -10.2565   -4.6874    3.8571 H        1 ZINC000004474682    0.0700
62     H62    -8.9264   -3.5477    4.1738 H        1 ZINC000004474682    0.0800
63     H63   -10.2037   -3.8823    5.7943 H        1 ZINC000004474682    0.1400
64     H64   -11.2290   -3.2831    7.9506 H        1 ZINC000004474682    0.1400
65     H65   -12.8529   -1.4378    8.0726 H        1 ZINC000004474682    0.1400
66     H66   -12.4293   -0.7755    3.8814 H        1 ZINC000004474682    0.1400
67     H67    -8.3373   -9.6317    3.2932 H        1 ZINC000004474682    0.3800
68     H68    -5.9365   -9.6785    1.7422 H        1 ZINC000004474682    0.0900
69     H69    -7.2294  -10.4969    0.8104 H        1 ZINC000004474682    0.0700
70     H70    -4.6516   -9.9864   -0.5330 H        1 ZINC000004474682    0.3800
@<TRIPOS>BOND
1     1     2     1
2     1     41    1
3     1     42    1
4     1     43    1
5     2     3     1
6     2     4     1
7     2     44    1
8     3     45    1
9     3     46    1
10    3     47    1
11    4     5     1
12    5     6     2
13    5     7     1
14    7     8     1
15    7     48    1
16    7     49    1
17    8     9     1
18    8     50    1
19    8     51    1
20    9     10    1
21    9     52    1
22    9     53    1
23    10    11    2
24    10    54    1
25    11    12    1
26    11    55    1
27    12    13    1
28    12    56    1
29    12    57    1
30    13    14    1
31    13    38    1
32    13    15    1
33    15    16    1
34    15    17    1
35    15    34    1
36    17    18    2
37    17    58    1
38    18    19    1
39    18    59    1
40    19    20    1
41    19    21    1
42    19    22    1
43    21    60    1
44    22    23    1
45    22    61    1
46    22    62    1
47    23    24    1
48    24    33    ar
49    24    25    ar
50    25    26    ar
51    25    63    1
52    26    27    ar
53    26    64    1
54    27    28    ar
55    27    65    1
56    28    29    1
57    28    33    ar
58    29    30    1
59    29    31    1
60    29    32    1
61    33    66    1
62    34    35    1
63    34    36    1
64    34    37    1
65    36    67    1
66    37    38    1
67    37    68    1
68    37    69    1
69    38    39    1
70    38    40    1
71    40    70    1
@<TRIPOS>SUBSTRUCTURE
1   ZINC000004474682 1     RESIDUE    1   A     ZIN   1
