@<TRIPOS>MOLECULE
ZINC000003812983
41    45    1     0     0
SMALL
USER_CHARGES
@<TRIPOS>ATOM
1      C1     -0.0178    1.4648    0.0101 C.3      1 ZINC000003812983   -0.0500
2      N2      0.0021   -0.0041    0.0020 N.4      1 ZINC000003812983   -0.3800
3      H3     -0.9431   -0.3456    0.0924 H        1 ZINC000003812983    0.4200
4      C4      0.5560   -0.4661   -1.2719 C.3      1 ZINC000003812983   -0.0100
5      C5      0.6052   -2.0008   -1.3298 C.3      1 ZINC000003812983   -0.1200
6      C6      1.4510   -2.4652   -0.1408 C.3      1 ZINC000003812983   -0.0600
7      C7      2.8003   -1.7972   -0.2306 C.ar     1 ZINC000003812983   -0.1900
8      C8      3.1683   -0.5953    0.3234 C.ar     1 ZINC000003812983   -0.0600
9      C9      4.4722   -0.1990    0.0839 C.ar     1 ZINC000003812983   -0.1300
10     C10     5.3268   -1.0169   -0.6378 C.ar     1 ZINC000003812983   -0.1000
11     C11     4.9545   -2.2618   -1.1423 C.ar     1 ZINC000003812983    0.1100
12     O12     5.8322   -3.0419   -1.8283 O.3      1 ZINC000003812983   -0.4800
13     C13     3.6385   -2.6725   -0.9109 C.ar     1 ZINC000003812983    0.1500
14     O14     2.9770   -3.8189   -1.1917 O.3      1 ZINC000003812983   -0.2700
15     C15     1.8644   -3.9296   -0.2296 C.3      1 ZINC000003812983    0.1100
16     H16     1.0608   -4.5897   -0.5559 H        1 ZINC000003812983    0.1500
17     C17     2.5589   -4.4031    1.0525 C.3      1 ZINC000003812983    0.1100
18     H18     2.3816   -5.4728    1.1646 H        1 ZINC000003812983    0.0800
19     O19     3.9650   -4.1939    0.9072 O.3      1 ZINC000003812983   -0.5400
20     C20     2.1129   -3.7216    2.2941 C.2      1 ZINC000003812983   -0.1600
21     C21     1.3766   -2.6584    2.3668 C.2      1 ZINC000003812983   -0.1300
22     C22     0.7881   -2.0007    1.1347 C.3      1 ZINC000003812983   -0.0500
23     H23    -0.2604   -2.2946    1.0849 H        1 ZINC000003812983    0.1000
24     C24     0.7944   -0.4787    1.1476 C.3      1 ZINC000003812983    0.0500
25     H25     0.2975   -0.1497    2.0602 H        1 ZINC000003812983    0.1400
26     C26     2.1712    0.1602    1.1408 C.3      1 ZINC000003812983   -0.0900
27     H27     0.9768    1.8429   -0.2260 H        1 ZINC000003812983    0.1300
28     H28    -0.7288    1.8226   -0.7346 H        1 ZINC000003812983    0.1300
29     H29    -0.3163    1.8187    0.9969 H        1 ZINC000003812983    0.1300
30     H30    -0.0664   -0.0973   -2.0872 H        1 ZINC000003812983    0.1400
31     H31     1.5654   -0.0714   -1.3870 H        1 ZINC000003812983    0.1300
32     H32    -0.4026   -2.4086   -1.2513 H        1 ZINC000003812983    0.1000
33     H33     1.0665   -2.3233   -2.2632 H        1 ZINC000003812983    0.1200
34     H34     4.8246    0.7501    0.4600 H        1 ZINC000003812983    0.1300
35     H35     6.3339   -0.6716   -0.8192 H        1 ZINC000003812983    0.1400
36     H36     6.3377   -3.6491   -1.2708 H        1 ZINC000003812983    0.4000
37     H37     4.4847   -4.4669    1.6757 H        1 ZINC000003812983    0.3900
38     H38     2.4342   -4.1556    3.2294 H        1 ZINC000003812983    0.1200
39     H39     1.1681   -2.2326    3.3372 H        1 ZINC000003812983    0.1300
40     H40     2.5332    0.2220    2.1671 H        1 ZINC000003812983    0.1200
41     H41     2.0860    1.1707    0.7412 H        1 ZINC000003812983    0.1000
@<TRIPOS>BOND
1     1     2     1
2     1     27    1
3     1     28    1
4     1     29    1
5     2     3     1
6     2     24    1
7     2     4     1
8     4     5     1
9     4     30    1
10    4     31    1
11    5     6     1
12    5     32    1
13    5     33    1
14    6     15    1
15    6     22    1
16    6     7     1
17    7     13    ar
18    7     8     ar
19    8     26    1
20    8     9     ar
21    9     10    ar
22    9     34    1
23    10    11    ar
24    10    35    1
25    11    12    1
26    11    13    ar
27    12    36    1
28    13    14    1
29    14    15    1
30    15    16    1
31    15    17    1
32    17    18    1
33    17    19    1
34    17    20    1
35    19    37    1
36    20    21    2
37    20    38    1
38    21    22    1
39    21    39    1
40    22    23    1
41    22    24    1
42    24    25    1
43    24    26    1
44    26    40    1
45    26    41    1
@<TRIPOS>SUBSTRUCTURE
1   ZINC000003812983 1     RESIDUE    1   A     ZIN   1
