@<TRIPOS>MOLECULE
ZINC000001530688
45   48    0    0    0
SMALL
USER_CHARGES
NO_NAME
@<TRIPOS>ATOM
1 C1        4.2652     1.4610     2.9548 C.3    1 <0>      -0.0500
2 N2        4.2601    -0.0080     2.9529 N.4    1 <0>      -0.5100
3 H3        4.8796    -0.3456     2.2316 H      1 <0>       0.4300
4 H4        4.5729    -0.3466     3.8505 H      1 <0>       0.4300
5 C5        2.8976    -0.4926     2.6944 C.3    1 <0>      -0.0100
6 C6        2.8923    -2.0226     2.6925 C.3    1 <0>      -0.1600
7 C7        1.4733    -2.5274     2.4232 C.3    1 <0>      -0.1000
8 C8        1.4910    -4.0514     2.2892 C.3    1 <0>       0.0300
9 C9        2.1409    -4.7589     3.4993 C.3    1 <0>      -0.1000
10 C10       2.1262    -6.2763     3.3279 C.3    1 <0>      -0.1100
11 C11       1.4655    -6.6837     1.9920 C.3    1 <0>      -0.0100
12 C12       0.0874    -6.0413     2.0125 C.ar   1 <0>      -0.0800
13 C13      -1.0916    -6.7186     1.8908 C.ar   1 <0>      -0.1000
14 C14      -2.2816    -6.0027     1.9263 C.ar   1 <0>      -0.1100
15 C15      -2.2683    -4.6293     2.0819 C.ar   1 <0>      -0.1200
16 C16      -1.0648    -3.9463     2.2045 C.ar   1 <0>      -0.1100
17 C17       0.1009    -4.6559     2.1692 C.ar   1 <0>      -0.0800
18 C18       2.2385    -5.9381     0.9158 C.ar   1 <0>      -0.0800
19 C19       2.8805    -6.5283    -0.1346 C.ar   1 <0>      -0.1000
20 C20       3.5503    -5.7233    -1.0475 C.ar   1 <0>      -0.1100
21 C21       3.5638    -4.3499    -0.8923 C.ar   1 <0>      -0.1200
22 C22       2.9084    -3.7560     0.1790 C.ar   1 <0>      -0.1200
23 C23       2.2446    -4.5334     1.0598 C.ar   1 <0>      -0.0800
24 H24       3.5959     1.8257     3.7340 H      1 <0>       0.1200
25 H25       5.2761     1.8206     3.1466 H      1 <0>       0.1300
26 H26       3.9273     1.8267     1.9851 H      1 <0>       0.1200
27 H27       2.2283    -0.1280     3.4736 H      1 <0>       0.1300
28 H28       2.5598    -0.1269     1.7248 H      1 <0>       0.1300
29 H29       3.5616    -2.3873     1.9133 H      1 <0>       0.1000
30 H30       3.2302    -2.3884     3.6621 H      1 <0>       0.0900
31 H31       0.8234    -2.2429     3.2508 H      1 <0>       0.0900
32 H32       1.0997    -2.0857     1.4994 H      1 <0>       0.0800
33 H33       3.1724    -4.4208     3.5987 H      1 <0>       0.0700
34 H34       1.5916    -4.4964     4.4035 H      1 <0>       0.0700
35 H35       3.1508    -6.6476     3.3473 H      1 <0>       0.0700
36 H36       1.5701    -6.7232     4.1521 H      1 <0>       0.0700
37 H37       1.4321    -7.7630     1.8432 H      1 <0>       0.1100
38 H38      -1.0990    -7.7917     1.7688 H      1 <0>       0.1300
39 H39      -3.2234    -6.5227     1.8312 H      1 <0>       0.1300
40 H40      -3.1999    -4.0835     2.1081 H      1 <0>       0.1200
41 H41      -1.0517    -2.8732     2.3255 H      1 <0>       0.1200
42 H42       2.8683    -7.6017    -0.2536 H      1 <0>       0.1300
43 H43       4.0636    -6.1736    -1.8842 H      1 <0>       0.1300
44 H44       4.0876    -3.7343    -1.6085 H      1 <0>       0.1200
45 H45       2.9176    -2.6832     0.3028 H      1 <0>       0.1200
@<TRIPOS>BOND
1    1    2 1
2    1   24 1
3    1   25 1
4    1   26 1
5    2    3 1
6    2    4 1
7    2    5 1
8    5    6 1
9    5   27 1
10    5   28 1
11    6    7 1
12    6   29 1
13    6   30 1
14    7    8 1
15    7   31 1
16    7   32 1
17    8   17 1
18    8   23 1
19    8    9 1
20    9   10 1
21    9   33 1
22    9   34 1
23   10   11 1
24   10   35 1
25   10   36 1
26   11   12 1
27   11   18 1
28   11   37 1
29   12   17 ar
30   12   13 ar
31   13   14 ar
32   13   38 1
33   14   15 ar
34   14   39 1
35   15   16 ar
36   15   40 1
37   16   17 ar
38   16   41 1
39   18   23 ar
40   18   19 ar
41   19   20 ar
42   19   42 1
43   20   21 ar
44   20   43 1
45   21   22 ar
46   21   44 1
47   22   23 ar
48   22   45 1
