@<TRIPOS>MOLECULE
ZINC000001530718
45    45    1     0     0
SMALL
USER_CHARGES
@<TRIPOS>ATOM
1      C1     -0.0173    1.4248    0.0099 C.3      1 ZINC000001530718    0.0300
2      O2      0.0021   -0.0041    0.0020 O.3      1 ZINC000001530718   -0.3900
3      C3      0.6518   -0.5703   -1.1379 C.3      1 ZINC000001530718    0.0700
4      C4      0.6131   -2.0967   -1.0411 C.3      1 ZINC000001530718   -0.0800
5      C5      1.2983   -2.6938   -2.2431 C.ar     1 ZINC000001530718   -0.1100
6      C6      0.5700   -2.9729   -3.3848 C.ar     1 ZINC000001530718   -0.0700
7      C7      1.1958   -3.5203   -4.4881 C.ar     1 ZINC000001530718   -0.1400
8      C8      2.5562   -3.7895   -4.4500 C.ar     1 ZINC000001530718    0.1200
9      O9      3.1742   -4.3276   -5.5342 O.3      1 ZINC000001530718   -0.3000
10     C10     4.5766   -4.5783   -5.4236 C.3      1 ZINC000001530718    0.0300
11     C11     5.0920   -5.1798   -6.7326 C.3      1 ZINC000001530718    0.0900
12     H12     4.8322   -4.5219   -7.5619 H        1 ZINC000001530718    0.1300
13     O13     4.4938   -6.4615   -6.9359 O.3      1 ZINC000001530718   -0.5400
14     C14     6.6126   -5.3325   -6.6598 C.3      1 ZINC000001530718   -0.0500
15     N15     7.1208   -5.7971   -7.9575 N.4      1 ZINC000001530718   -0.5000
16     H16     6.7037   -6.6878   -8.1826 H        1 ZINC000001530718    0.4300
17     H17     6.8840   -5.1247   -8.6716 H        1 ZINC000001530718    0.4300
18     C18     8.5807   -5.9437   -7.8876 C.3      1 ZINC000001530718    0.0200
19     C19     8.9351   -7.0518   -6.8939 C.3      1 ZINC000001530718   -0.1900
20     C20     9.1236   -6.3066   -9.2713 C.3      1 ZINC000001530718   -0.1900
21     C21     3.2847   -3.5082   -3.3034 C.ar     1 ZINC000001530718   -0.2100
22     C22     2.6552   -2.9564   -2.2045 C.ar     1 ZINC000001530718   -0.0700
23     H23     1.0053    1.8021    0.0021 H        1 ZINC000001530718    0.0400
24     H24    -0.5445    1.7859   -0.8732 H        1 ZINC000001530718    0.0400
25     H25    -0.5275    1.7763    0.9067 H        1 ZINC000001530718    0.0900
26     H26     0.1385   -0.2506   -2.0447 H        1 ZINC000001530718    0.0500
27     H27     1.6883   -0.2344   -1.1694 H        1 ZINC000001530718    0.0500
28     H28     1.1264   -2.4164   -0.1342 H        1 ZINC000001530718    0.0800
29     H29    -0.4234   -2.4326   -1.0095 H        1 ZINC000001530718    0.0800
30     H30    -0.4890   -2.7631   -3.4140 H        1 ZINC000001530718    0.1400
31     H31     0.6263   -3.7387   -5.3794 H        1 ZINC000001530718    0.1300
32     H32     5.0983   -3.6424   -5.2236 H        1 ZINC000001530718    0.0800
33     H33     4.7575   -5.2769   -4.6067 H        1 ZINC000001530718    0.0800
34     H34     4.6832   -7.0997   -6.2345 H        1 ZINC000001530718    0.3900
35     H35     7.0632   -4.3702   -6.4166 H        1 ZINC000001530718    0.1500
36     H36     6.8684   -6.0588   -5.8883 H        1 ZINC000001530718    0.1400
37     H37     9.0249   -5.0044   -7.5580 H        1 ZINC000001530718    0.1400
38     H38    10.0184   -7.1606   -6.8421 H        1 ZINC000001530718    0.1100
39     H39     8.5483   -6.7932   -5.9082 H        1 ZINC000001530718    0.0800
40     H40     8.4910   -7.9910   -7.2236 H        1 ZINC000001530718    0.0800
41     H41     8.8712   -5.5172   -9.9792 H        1 ZINC000001530718    0.0800
42     H42    10.2070   -6.4154   -9.2194 H        1 ZINC000001530718    0.1100
43     H43     8.6795   -7.2459   -9.6009 H        1 ZINC000001530718    0.0800
44     H44     4.3438   -3.7172   -3.2712 H        1 ZINC000001530718    0.1200
45     H45     3.2220   -2.7368   -1.3118 H        1 ZINC000001530718    0.1300
@<TRIPOS>BOND
1     1     2     1
2     1     23    1
3     1     24    1
4     1     25    1
5     2     3     1
6     3     4     1
7     3     26    1
8     3     27    1
9     4     5     1
10    4     28    1
11    4     29    1
12    5     22    ar
13    5     6     ar
14    6     7     ar
15    6     30    1
16    7     8     ar
17    7     31    1
18    8     9     1
19    8     21    ar
20    9     10    1
21    10    11    1
22    10    32    1
23    10    33    1
24    11    12    1
25    11    13    1
26    11    14    1
27    13    34    1
28    14    15    1
29    14    35    1
30    14    36    1
31    15    16    1
32    15    17    1
33    15    18    1
34    18    19    1
35    18    20    1
36    18    37    1
37    19    38    1
38    19    39    1
39    19    40    1
40    20    41    1
41    20    42    1
42    20    43    1
43    21    22    ar
44    21    44    1
45    22    45    1
@<TRIPOS>SUBSTRUCTURE
1   ZINC000001530718 1     RESIDUE    1   A     ZIN   1
