@<TRIPOS>MOLECULE
ZINC000000056568
23   23    0    0    0
SMALL
USER_CHARGES
NO_NAME
@<TRIPOS>ATOM
1 O1        0.0021    -0.0041     0.0020 O.co2  1 <0>      -0.7000
2 C2       -0.0145     1.2150     0.0087 C.2    1 <0>       0.4900
3 O3        1.0330     1.8389     0.0021 O.co2  1 <0>      -0.7100
4 C4       -1.3296     1.9507     0.0190 C.3    1 <0>      -0.1800
5 C5       -2.4790     0.9408     0.0189 C.3    1 <0>      -0.0900
6 C6       -3.8142     1.6877     0.0293 C.3    1 <0>      -0.0900
7 C7       -4.9463     0.6929     0.0293 C.ar   1 <0>      -0.0700
8 C8       -5.4674     0.2389    -1.1679 C.ar   1 <0>      -0.1200
9 C9       -6.5058    -0.6736    -1.1679 C.ar   1 <0>      -0.1200
10 C10      -7.0228    -1.1324     0.0292 C.ar   1 <0>      -0.1400
11 C11      -6.5010    -0.6791     1.2264 C.ar   1 <0>      -0.1200
12 C12      -5.4598     0.2302     1.2264 C.ar   1 <0>      -0.1200
13 H13      -1.3917     2.5717     0.9126 H      1 <0>       0.0600
14 H14      -1.4001     2.5813    -0.8673 H      1 <0>       0.0600
15 H15      -2.4169     0.3198    -0.8748 H      1 <0>       0.0600
16 H16      -2.4085     0.3101     0.9052 H      1 <0>       0.0600
17 H17      -3.8762     2.3086     0.9230 H      1 <0>       0.0700
18 H18      -3.8847     2.3183    -0.8569 H      1 <0>       0.0700
19 H19      -5.0634     0.5974    -2.1032 H      1 <0>       0.1200
20 H20      -6.9134    -1.0277    -2.1033 H      1 <0>       0.1200
21 H21      -7.8345    -1.8447     0.0292 H      1 <0>       0.1200
22 H22      -6.9052    -1.0373     2.1616 H      1 <0>       0.1200
23 H23      -5.0522     0.5843     2.1617 H      1 <0>       0.1200
@<TRIPOS>BOND
1    1    2 ar
2    2    3 ar
3    2    4 1
4    4    5 1
5    4   13 1
6    4   14 1
7    5    6 1
8    5   15 1
9    5   16 1
10    6    7 1
11    6   17 1
12    6   18 1
13    7   12 ar
14    7    8 ar
15    8    9 ar
16    8   19 1
17    9   10 ar
18    9   20 1
19   10   11 ar
20   10   21 1
21   11   12 ar
22   11   22 1
23   12   23 1
