@<TRIPOS>MOLECULE
ZINC000000602128
52   54    0    0    0
SMALL
USER_CHARGES
NO_NAME
@<TRIPOS>ATOM
1 O1        0.0074     0.8823     0.9746 O.co2  1 <0>      -0.7000
2 C2       -0.1451     2.0910     0.9249 C.2    1 <0>       0.4900
3 O3        0.8196     2.8313     1.0121 O.co2  1 <0>      -0.6900
4 C4       -1.5255     2.6696     0.7496 C.3    1 <0>      -0.1800
5 C5       -2.5471     1.5341     0.6613 C.3    1 <0>      -0.1200
6 C6       -3.9486     2.1215     0.4833 C.3    1 <0>      -0.0100
7 N7       -4.9294     1.0313     0.3984 N.4    1 <0>      -0.3800
8 H8       -4.6621     0.3964    -0.3389 H      1 <0>       0.4200
9 C9       -6.2549     1.5893     0.1049 C.3    1 <0>       0.0000
10 C10      -7.2650     0.4524    -0.0647 C.3    1 <0>      -0.1400
11 C11      -7.3283    -0.3641     1.2293 C.3    1 <0>       0.0800
12 O12      -8.2144    -1.4713     1.0528 O.3    1 <0>      -0.3500
13 C13      -8.8527    -1.9025     2.2564 C.3    1 <0>       0.1900
14 H14      -8.1806    -1.7461     3.1002 H      1 <0>       0.0900
15 C15     -10.1164    -1.1089     2.4669 C.ar   1 <0>      -0.1100
16 C16     -10.9326    -0.8113     1.3916 C.ar   1 <0>      -0.0800
17 C17     -12.0917    -0.0835     1.5841 C.ar   1 <0>      -0.1100
18 C18     -12.4351     0.3471     2.8532 C.ar   1 <0>      -0.0300
19 Cl19    -13.8912     1.2607     3.0958 Cl     1 <0>      -0.0600
20 C20     -11.6179     0.0489     3.9290 C.ar   1 <0>      -0.1100
21 C21     -10.4619    -0.6838     3.7362 C.ar   1 <0>      -0.0800
22 C22      -9.1912    -3.3670     2.1486 C.ar   1 <0>       0.1200
23 C23      -8.8164    -4.0734     1.0216 C.ar   1 <0>      -0.1500
24 C24      -9.1323    -5.4207     0.9325 C.ar   1 <0>      -0.0800
25 C25      -9.8164    -6.0090     1.9850 C.ar   1 <0>      -0.1700
26 C26     -10.1584    -5.2386     3.0805 C.ar   1 <0>       0.1100
27 N27      -9.8370    -3.9609     3.1332 N.ar   1 <0>      -0.4700
28 C28      -5.9258    -0.8792     1.5654 C.3    1 <0>      -0.1700
29 C29      -4.9666     0.3081     1.6752 C.3    1 <0>      -0.0100
30 H30      -1.7633     3.3067     1.6015 H      1 <0>       0.0700
31 H31      -1.5584     3.2600    -0.1660 H      1 <0>       0.0700
32 H32      -2.3094     0.8969    -0.1906 H      1 <0>       0.0800
33 H33      -2.5142     0.9437     1.5769 H      1 <0>       0.0800
34 H34      -4.1863     2.7587     1.3351 H      1 <0>       0.1200
35 H35      -3.9814     2.7119    -0.4324 H      1 <0>       0.1300
36 H36      -6.5678     2.2331     0.9270 H      1 <0>       0.1300
37 H37      -6.2075     2.1728    -0.8146 H      1 <0>       0.1400
38 H38      -8.2488     0.8689    -0.2808 H      1 <0>       0.1200
39 H39      -6.9532    -0.1918    -0.8868 H      1 <0>       0.1000
40 H40      -7.6904     0.2668     2.0410 H      1 <0>       0.0800
41 H41     -10.6642    -1.1472     0.4009 H      1 <0>       0.1300
42 H42     -12.7291     0.1493     0.7438 H      1 <0>       0.1300
43 H43     -11.8853     0.3850     4.9199 H      1 <0>       0.1400
44 H44      -9.8241    -0.9169     4.5759 H      1 <0>       0.1300
45 H45      -8.2844    -3.5823     0.2203 H      1 <0>       0.1400
46 H46      -8.8524    -5.9978     0.0636 H      1 <0>       0.1400
47 H47     -10.0791    -7.0559     1.9493 H      1 <0>       0.1400
48 H48     -10.6916    -5.6893     3.9044 H      1 <0>       0.1600
49 H49      -5.9525    -1.4145     2.5145 H      1 <0>       0.1100
50 H50      -5.5862    -1.5511     0.7772 H      1 <0>       0.1000
51 H51      -3.9668    -0.0540     1.9146 H      1 <0>       0.1400
52 H52      -5.3079     0.9785     2.4640 H      1 <0>       0.1300
@<TRIPOS>BOND
1    1    2 ar
2    2    3 ar
3    2    4 1
4    4    5 1
5    4   30 1
6    4   31 1
7    5    6 1
8    5   32 1
9    5   33 1
10    6    7 1
11    6   34 1
12    6   35 1
13    7    8 1
14    7   29 1
15    7    9 1
16    9   10 1
17    9   36 1
18    9   37 1
19   10   11 1
20   10   38 1
21   10   39 1
22   11   12 1
23   11   28 1
24   11   40 1
25   12   13 1
26   13   14 1
27   13   15 1
28   13   22 1
29   15   21 ar
30   15   16 ar
31   16   17 ar
32   16   41 1
33   17   18 ar
34   17   42 1
35   18   19 1
36   18   20 ar
37   20   21 ar
38   20   43 1
39   21   44 1
40   22   27 ar
41   22   23 ar
42   23   24 ar
43   23   45 1
44   24   25 ar
45   24   46 1
46   25   26 ar
47   25   47 1
48   26   27 ar
49   26   48 1
50   28   29 1
51   28   49 1
52   28   50 1
53   29   51 1
54   29   52 1
