@<TRIPOS>MOLECULE
ZINC000003812888
72    73    1     0     0
SMALL
USER_CHARGES
@<TRIPOS>ATOM
1      C1      5.6950   -1.0701    4.4333 C.3      1 ZINC000003812888    0.0200
2      O2      6.2146   -2.3836    4.2169 O.3      1 ZINC000003812888   -0.3000
3      C3      6.1489   -2.8725    2.9496 C.ar     1 ZINC000003812888    0.1200
4      C4      5.6019   -2.1028    1.9361 C.ar     1 ZINC000003812888   -0.1700
5      C5      5.5363   -2.6013    0.6479 C.ar     1 ZINC000003812888   -0.1000
6      C6      6.0152   -3.8673    0.3683 C.ar     1 ZINC000003812888   -0.1100
7      C7      5.9407   -4.4058   -1.0372 C.3      1 ZINC000003812888   -0.0900
8      C8      7.2171   -4.0335   -1.7942 C.3      1 ZINC000003812888   -0.0100
9      N9      7.1445   -4.5585   -3.1643 N.4      1 ZINC000003812888   -0.3900
10     H10     6.9693   -5.5517   -3.1351 H        1 ZINC000003812888    0.4200
11     C11     6.0546   -3.8900   -3.8877 C.3      1 ZINC000003812888   -0.0600
12     C12     8.4169   -4.3058   -3.8536 C.3      1 ZINC000003812888   -0.0100
13     C13     8.3871   -4.9610   -5.2359 C.3      1 ZINC000003812888   -0.1600
14     C14     9.7123   -4.6978   -5.9537 C.3      1 ZINC000003812888   -0.1000
15     C15     9.6825   -5.3529   -7.3360 C.3      1 ZINC000003812888    0.1000
16     C16     9.4848   -6.8040   -7.1871 C.1      1 ZINC000003812888    0.2000
17     N17     9.3323   -7.9238   -7.0722 N.1      1 ZINC000003812888   -0.4100
18     C18    10.9878   -5.0937   -8.0431 C.ar     1 ZINC000003812888   -0.1000
19     C19    10.9928   -4.4595   -9.2710 C.ar     1 ZINC000003812888   -0.1100
20     C20    12.1879   -4.2197   -9.9241 C.ar     1 ZINC000003812888   -0.1800
21     C21    13.3837   -4.6151   -9.3474 C.ar     1 ZINC000003812888    0.1200
22     O22    14.5599   -4.3797   -9.9881 O.3      1 ZINC000003812888   -0.3000
23     C23    14.4886   -3.7198  -11.2536 C.3      1 ZINC000003812888    0.0200
24     C24    13.3788   -5.2535   -8.1105 C.ar     1 ZINC000003812888    0.1000
25     O25    14.5502   -5.6431   -7.5400 O.3      1 ZINC000003812888   -0.3000
26     C26    14.4687   -6.2925   -6.2697 C.3      1 ZINC000003812888    0.0300
27     C27    12.1784   -5.4860   -7.4592 C.ar     1 ZINC000003812888   -0.1600
28     C28     8.5328   -4.7630   -8.1553 C.3      1 ZINC000003812888   -0.0800
29     C29     8.7671   -3.2647   -8.3576 C.3      1 ZINC000003812888   -0.1800
30     C30     8.4681   -5.4576   -9.5170 C.3      1 ZINC000003812888   -0.1800
31     C31     6.5629   -4.6407    1.3754 C.ar     1 ZINC000003812888   -0.1700
32     C32     6.6365   -4.1453    2.6669 C.ar     1 ZINC000003812888    0.1100
33     O33     7.1749   -4.9045    3.6584 O.3      1 ZINC000003812888   -0.3000
34     C34     7.6454   -6.2046    3.2971 C.3      1 ZINC000003812888    0.0300
35     H35     6.2410   -0.3570    3.8156 H        1 ZINC000003812888    0.0600
36     H36     4.6387   -1.0486    4.1655 H        1 ZINC000003812888    0.0600
37     H37     5.8090   -0.8027    5.4838 H        1 ZINC000003812888    0.1100
38     H38     5.2263   -1.1135    2.1521 H        1 ZINC000003812888    0.1400
39     H39     5.1095   -2.0002   -0.1413 H        1 ZINC000003812888    0.1300
40     H40     5.8403   -5.4907   -1.0057 H        1 ZINC000003812888    0.0900
41     H41     5.0780   -3.9756   -1.5459 H        1 ZINC000003812888    0.1000
42     H42     7.3175   -2.9486   -1.8257 H        1 ZINC000003812888    0.1300
43     H43     8.0798   -4.4637   -1.2856 H        1 ZINC000003812888    0.1300
44     H44     6.0008   -4.2796   -4.9043 H        1 ZINC000003812888    0.1300
45     H45     5.1105   -4.0775   -3.3763 H        1 ZINC000003812888    0.1300
46     H46     6.2439   -2.8171   -3.9193 H        1 ZINC000003812888    0.1300
47     H47     8.5633   -3.2313   -3.9638 H        1 ZINC000003812888    0.1300
48     H48     9.2360   -4.7261   -3.2699 H        1 ZINC000003812888    0.1300
49     H49     8.2407   -6.0354   -5.1256 H        1 ZINC000003812888    0.0900
50     H50     7.5680   -4.5407   -5.8195 H        1 ZINC000003812888    0.1000
51     H51     9.8587   -3.6233   -6.0640 H        1 ZINC000003812888    0.1000
52     H52    10.5314   -5.1181   -5.3701 H        1 ZINC000003812888    0.0900
53     H53    10.0611   -4.1507   -9.7217 H        1 ZINC000003812888    0.1600
54     H54    12.1889   -3.7246  -10.8839 H        1 ZINC000003812888    0.1400
55     H55    14.0228   -2.7424  -11.1279 H        1 ZINC000003812888    0.0600
56     H56    15.4942   -3.5942  -11.6550 H        1 ZINC000003812888    0.1100
57     H57    13.8945   -4.3196  -11.9431 H        1 ZINC000003812888    0.0600
58     H58    15.4713   -6.5501   -5.9283 H        1 ZINC000003812888    0.1100
59     H59    14.0003   -5.6227   -5.5486 H        1 ZINC000003812888    0.0500
60     H60    13.8724   -7.2001   -6.3632 H        1 ZINC000003812888    0.0500
61     H61    12.1718   -5.9811   -6.4994 H        1 ZINC000003812888    0.1300
62     H62     7.5930   -4.9155   -7.6246 H        1 ZINC000003812888    0.0800
63     H63     9.8262   -3.0841   -8.5414 H        1 ZINC000003812888    0.0900
64     H64     8.1858   -2.9182   -9.2121 H        1 ZINC000003812888    0.0700
65     H65     8.4561   -2.7243   -7.4635 H        1 ZINC000003812888    0.0600
66     H66     7.9656   -6.4190   -9.4110 H        1 ZINC000003812888    0.0600
67     H67     7.9135   -4.8330  -10.2174 H        1 ZINC000003812888    0.0700
68     H68     9.4790   -5.6155   -9.8928 H        1 ZINC000003812888    0.0800
69     H69     6.9364   -5.6296    1.1542 H        1 ZINC000003812888    0.1400
70     H70     8.0493   -6.7027    4.1785 H        1 ZINC000003812888    0.1100
71     H71     6.8195   -6.7911    2.8948 H        1 ZINC000003812888    0.0600
72     H72     8.4265   -6.1116    2.5425 H        1 ZINC000003812888    0.0500
@<TRIPOS>BOND
1     1     2     1
2     1     35    1
3     1     36    1
4     1     37    1
5     2     3     1
6     3     32    ar
7     3     4     ar
8     4     5     ar
9     4     38    1
10    5     6     ar
11    5     39    1
12    6     7     1
13    6     31    ar
14    7     8     1
15    7     40    1
16    7     41    1
17    8     9     1
18    8     42    1
19    8     43    1
20    9     10    1
21    9     11    1
22    9     12    1
23    11    44    1
24    11    45    1
25    11    46    1
26    12    13    1
27    12    47    1
28    12    48    1
29    13    14    1
30    13    49    1
31    13    50    1
32    14    15    1
33    14    51    1
34    14    52    1
35    15    16    1
36    15    18    1
37    15    28    1
38    16    17    3
39    18    27    ar
40    18    19    ar
41    19    20    ar
42    19    53    1
43    20    21    ar
44    20    54    1
45    21    22    1
46    21    24    ar
47    22    23    1
48    23    55    1
49    23    56    1
50    23    57    1
51    24    25    1
52    24    27    ar
53    25    26    1
54    26    58    1
55    26    59    1
56    26    60    1
57    27    61    1
58    28    29    1
59    28    30    1
60    28    62    1
61    29    63    1
62    29    64    1
63    29    65    1
64    30    66    1
65    30    67    1
66    30    68    1
67    31    32    ar
68    31    69    1
69    32    33    1
70    33    34    1
71    34    70    1
72    34    71    1
73    34    72    1
@<TRIPOS>SUBSTRUCTURE
1   ZINC000003812888 1     RESIDUE    1   A     ZIN   1
