@<TRIPOS>MOLECULE
ZINC000000607790
54   56    0    0    0
SMALL
USER_CHARGES
NO_NAME
@<TRIPOS>ATOM
1 C1       -0.2330     1.4435    -0.2428 C.3    1 <0>       0.0200
2 O2       -0.1442     0.0191    -0.1718 O.3    1 <0>      -0.3000
3 C3        0.5427    -0.6066    -1.1639 C.ar   1 <0>       0.1300
4 C4        1.1228     0.1416    -2.1804 C.ar   1 <0>      -0.2000
5 C5        1.8194    -0.4888    -3.1905 C.ar   1 <0>      -0.0200
6 C6        1.9356    -1.8750    -3.1936 C.ar   1 <0>      -0.1000
7 C7        1.3591    -2.6337    -2.1705 C.ar   1 <0>       0.1400
8 O8        1.4810    -3.9871    -2.1689 O.3    1 <0>      -0.3300
9 C9        0.4106    -4.7356    -2.7486 C.3    1 <0>       0.0400
10 C10       0.6657    -1.9919    -1.1527 C.ar   1 <0>       0.0400
11 O11       0.0988    -2.7182    -0.1510 O.3    1 <0>      -0.3200
12 C12       0.9044    -2.9733     1.0014 C.3    1 <0>       0.0400
13 C13       2.6677    -2.5613    -4.3001 C.2    1 <0>      -0.0500
14 C14       3.5947    -3.5031    -3.9354 C.2    1 <0>      -0.0200
15 C15       4.4382    -4.2770    -4.6445 C.2    1 <0>      -0.1900
16 C16       4.6297    -4.3166    -5.9904 C.2    1 <0>       0.1000
17 O17       5.5536    -5.1898    -6.4606 O.3    1 <0>      -0.2800
18 C18       6.2414    -5.9886    -5.4959 C.3    1 <0>       0.0100
19 C19       3.9567    -3.5368    -6.9245 C.2    1 <0>       0.3900
20 O20       4.3144    -3.6732    -8.0870 O.2    1 <0>      -0.4900
21 C21       2.9486    -2.6387    -6.7157 C.2    1 <0>      -0.2100
22 C22       2.3397    -2.1894    -5.6047 C.2    1 <0>       0.0300
23 C23       1.1972    -1.2162    -5.8121 C.3    1 <0>       0.1700
24 H24       0.3865    -1.4689    -5.1288 H      1 <0>       0.1100
25 N25       0.7140    -1.3334    -7.1902 N.am   1 <0>      -0.7300
26 C26      -0.1953    -2.2762    -7.5076 C.2    1 <0>       0.5100
27 C27      -0.6923    -2.3968    -8.9251 C.3    1 <0>      -0.1700
28 O28      -0.6136    -3.0275    -6.6523 O.2    1 <0>      -0.5400
29 C29       1.6272     0.2149    -5.5610 C.3    1 <0>      -0.1200
30 C30       2.4615     0.3213    -4.2870 C.3    1 <0>      -0.0800
31 H31       0.7691     1.8716    -0.2202 H      1 <0>       0.0600
32 H32      -0.7301     1.7308    -1.1693 H      1 <0>       0.0600
33 H33      -0.8059     1.8146     0.6070 H      1 <0>       0.1000
34 H34       1.0281     1.2174    -2.1801 H      1 <0>       0.1400
35 H35      -0.5263    -4.4674    -2.2605 H      1 <0>       0.0500
36 H36       0.3437    -4.5094    -3.8128 H      1 <0>       0.0500
37 H37       0.5980    -5.8010    -2.6147 H      1 <0>       0.1000
38 H38       0.3099    -3.4934     1.7524 H      1 <0>       0.0900
39 H39       1.7561    -3.5924     0.7195 H      1 <0>       0.0500
40 H40       1.2618    -2.0286     1.4112 H      1 <0>       0.0500
41 H41       3.6620    -3.6539    -2.8681 H      1 <0>       0.1300
42 H42       5.0449    -4.9581    -4.0662 H      1 <0>       0.1400
43 H43       6.7774    -5.3401    -4.8028 H      1 <0>       0.0600
44 H44       5.5211    -6.5931    -4.9447 H      1 <0>       0.0600
45 H45       6.9505    -6.6420    -6.0043 H      1 <0>       0.1100
46 H46       2.5641    -2.2018    -7.6255 H      1 <0>       0.1400
47 H47       1.0486    -0.7325    -7.8742 H      1 <0>       0.4100
48 H48      -0.0537    -3.0869    -9.4766 H      1 <0>       0.1000
49 H49      -1.7153    -2.7731    -8.9207 H      1 <0>       0.1000
50 H50      -0.6675    -1.4177    -9.4034 H      1 <0>       0.0800
51 H51       2.2189     0.5644    -6.4071 H      1 <0>       0.0800
52 H52       0.7415     0.8424    -5.4615 H      1 <0>       0.0800
53 H53       2.5220     1.3652    -3.9792 H      1 <0>       0.0900
54 H54       3.4651    -0.0588    -4.4779 H      1 <0>       0.0900
@<TRIPOS>BOND
1    1    2 1
2    1   31 1
3    1   32 1
4    1   33 1
5    2    3 1
6    3   10 ar
7    3    4 ar
8    4    5 ar
9    4   34 1
10    5   30 1
11    5    6 ar
12    6    7 ar
13    6   13 1
14    7    8 1
15    7   10 ar
16    8    9 1
17    9   35 1
18    9   36 1
19    9   37 1
20   10   11 1
21   11   12 1
22   12   38 1
23   12   39 1
24   12   40 1
25   13   22 1
26   13   14 2
27   14   15 1
28   14   41 1
29   15   16 2
30   15   42 1
31   16   17 1
32   16   19 1
33   17   18 1
34   18   43 1
35   18   44 1
36   18   45 1
37   19   20 2
38   19   21 1
39   21   22 2
40   21   46 1
41   22   23 1
42   23   24 1
43   23   25 1
44   23   29 1
45   25   26 am
46   25   47 1
47   26   27 1
48   26   28 2
49   27   48 1
50   27   49 1
51   27   50 1
52   29   30 1
53   29   51 1
54   29   52 1
55   30   53 1
56   30   54 1
