@<TRIPOS>MOLECULE
ZINC000004097309
84    86    1     0     0
SMALL
USER_CHARGES
@<TRIPOS>ATOM
1      C1     -0.9825    1.3203    4.0606 C.3      1 ZINC000004097309   -0.1400
2      C2     -0.7372    0.5303    2.7735 C.3      1 ZINC000004097309   -0.1100
3      C3      0.4078   -0.4270    2.9822 C.2      1 ZINC000004097309    0.4100
4      O4      0.9699   -0.4729    4.0507 O.2      1 ZINC000004097309   -0.4100
5      O5      0.8032   -1.2289    1.9809 O.3      1 ZINC000004097309   -0.3600
6      C6      1.8276   -2.2110    2.2882 C.3      1 ZINC000004097309    0.3200
7      H7      1.5910   -2.6992    3.2336 H        1 ZINC000004097309    0.0800
8      O8      3.0954   -1.5600    2.3926 O.3      1 ZINC000004097309   -0.7300
9      P9      3.8755   -1.3782    3.7892 P.3      1 ZINC000004097309    2.4000
10     O10     2.9937   -0.6943    4.7614 O.2      1 ZINC000004097309   -0.9400
11     C11     4.3444   -3.0149    4.4409 C.3      1 ZINC000004097309   -0.7700
12     C12     3.0826   -3.7969    4.8115 C.3      1 ZINC000004097309   -0.1200
13     C13     3.4776   -5.1139    5.4825 C.3      1 ZINC000004097309   -0.1100
14     C14     2.2158   -5.8959    5.8532 C.3      1 ZINC000004097309   -0.0900
15     C15     2.6048   -7.1932    6.5141 C.ar     1 ZINC000004097309   -0.0800
16     C16     2.8085   -8.3254    5.7477 C.ar     1 ZINC000004097309   -0.1200
17     C17     3.1654   -9.5154    6.3540 C.ar     1 ZINC000004097309   -0.1200
18     C18     3.3189   -9.5730    7.7266 C.ar     1 ZINC000004097309   -0.1300
19     C19     3.1161   -8.4405    8.4929 C.ar     1 ZINC000004097309   -0.1200
20     C20     2.7634   -7.2495    7.8862 C.ar     1 ZINC000004097309   -0.1200
21     C21     5.3759   -0.3781    3.5215 C.3      1 ZINC000004097309   -0.7500
22     C22     4.9829    1.0144    3.1002 C.2      1 ZINC000004097309    0.5700
23     O23     4.6293    1.8227    3.9324 O.2      1 ZINC000004097309   -0.5400
24     N24     5.0244    1.3616    1.7985 N.am     1 ZINC000004097309   -0.5900
25     C25     4.6744    2.6847    1.2506 C.3      1 ZINC000004097309    0.1200
26     C26     5.4462    2.7758   -0.0894 C.3      1 ZINC000004097309   -0.1000
27     H27     6.4851    3.0607    0.0768 H        1 ZINC000004097309    0.0800
28     C28     4.7613    3.7482   -1.0518 C.3      1 ZINC000004097309   -0.0700
29     C29     4.7425    5.1482   -0.4348 C.3      1 ZINC000004097309   -0.1200
30     C30     4.0576    6.1205   -1.3972 C.3      1 ZINC000004097309   -0.1200
31     C31     4.8267    6.1562   -2.7193 C.3      1 ZINC000004097309   -0.1200
32     C32     4.8454    4.7562   -3.3363 C.3      1 ZINC000004097309   -0.1200
33     C33     5.5304    3.7839   -2.3739 C.3      1 ZINC000004097309   -0.1200
34     C34     5.3456    1.3165   -0.6067 C.3      1 ZINC000004097309   -0.1000
35     C35     5.4322    0.4854    0.6906 C.3      1 ZINC000004097309    0.0500
36     H36     4.7557   -0.3672    0.6306 H        1 ZINC000004097309    0.0800
37     C37     6.8453    0.0045    0.8978 C.2      1 ZINC000004097309    0.4800
38     O38     7.5210    0.4684    1.8005 O.co2    1 ZINC000004097309   -0.6800
39     O39     7.3129   -0.8485    0.1628 O.co2    1 ZINC000004097309   -0.6900
40     C40     1.8818   -3.2573    1.1733 C.3      1 ZINC000004097309   -0.0900
41     C41     3.0470   -4.2153    1.4292 C.3      1 ZINC000004097309   -0.1600
42     C42     0.5702   -4.0447    1.1486 C.3      1 ZINC000004097309   -0.1500
43     H43    -0.0838    1.8797    4.3204 H        1 ZINC000004097309    0.0700
44     H44    -1.8106    2.0127    3.9097 H        1 ZINC000004097309    0.0600
45     H45    -1.2278    0.6311    4.8687 H        1 ZINC000004097309    0.0600
46     H46    -1.6358   -0.0291    2.5136 H        1 ZINC000004097309    0.1000
47     H47    -0.4918    1.2195    1.9654 H        1 ZINC000004097309    0.1000
48     H48     4.9012   -3.5628    3.6806 H        1 ZINC000004097309    0.1000
49     H49     4.9669   -2.8886    5.3267 H        1 ZINC000004097309    0.1200
50     H50     2.4778   -3.2058    5.4992 H        1 ZINC000004097309    0.0900
51     H51     2.5072   -4.0067    3.9099 H        1 ZINC000004097309    0.0700
52     H52     4.0824   -5.7050    4.7949 H        1 ZINC000004097309    0.0600
53     H53     4.0530   -4.9041    6.3842 H        1 ZINC000004097309    0.0700
54     H54     1.6109   -5.3049    6.5409 H        1 ZINC000004097309    0.0800
55     H55     1.6404   -6.1057    4.9515 H        1 ZINC000004097309    0.0700
56     H56     2.6886   -8.2804    4.6754 H        1 ZINC000004097309    0.1200
57     H57     3.3239  -10.4002    5.7553 H        1 ZINC000004097309    0.1200
58     H58     3.5970  -10.5029    8.2003 H        1 ZINC000004097309    0.1200
59     H59     3.2357   -8.4856    9.5653 H        1 ZINC000004097309    0.1200
60     H60     2.6049   -6.3647    8.4849 H        1 ZINC000004097309    0.1200
61     H61     5.9499   -0.3293    4.4468 H        1 ZINC000004097309    0.1400
62     H62     5.9833   -0.8360    2.7409 H        1 ZINC000004097309    0.1300
63     H63     3.6006    2.7507    1.0752 H        1 ZINC000004097309    0.0600
64     H64     4.9979    3.4740    1.9292 H        1 ZINC000004097309    0.0700
65     H65     3.7387    3.4182   -1.2351 H        1 ZINC000004097309    0.0700
66     H66     4.1946    5.1228    0.5071 H        1 ZINC000004097309    0.0600
67     H67     5.7651    5.4782   -0.2515 H        1 ZINC000004097309    0.0600
68     H68     3.0350    5.7905   -1.5805 H        1 ZINC000004097309    0.0600
69     H69     4.0442    7.1179   -0.9576 H        1 ZINC000004097309    0.0600
70     H70     4.3387    6.8489   -3.4050 H        1 ZINC000004097309    0.0600
71     H71     5.8492    6.4862   -2.5361 H        1 ZINC000004097309    0.0600
72     H72     3.8229    4.4262   -3.5196 H        1 ZINC000004097309    0.0600
73     H73     5.3934    4.7816   -4.2783 H        1 ZINC000004097309    0.0600
74     H74     6.5529    4.1139   -2.1907 H        1 ZINC000004097309    0.0600
75     H75     5.5437    2.7865   -2.8135 H        1 ZINC000004097309    0.0700
76     H76     4.3940    1.1513   -1.1121 H        1 ZINC000004097309    0.0700
77     H77     6.1802    1.0833   -1.2678 H        1 ZINC000004097309    0.0800
78     H78     2.0247   -2.7594    0.2143 H        1 ZINC000004097309    0.1000
79     H79     2.8495   -4.7950    2.3309 H        1 ZINC000004097309    0.0600
80     H80     3.1557   -4.8901    0.5801 H        1 ZINC000004097309    0.0800
81     H81     3.9658   -3.6435    1.5588 H        1 ZINC000004097309    0.0600
82     H82    -0.2599   -3.3622    0.9663 H        1 ZINC000004097309    0.0700
83     H83     0.6088   -4.7901    0.3543 H        1 ZINC000004097309    0.0700
84     H84     0.4272   -4.5426    2.1076 H        1 ZINC000004097309    0.0600
@<TRIPOS>BOND
1     1     2     1
2     1     43    1
3     1     44    1
4     1     45    1
5     2     3     1
6     2     46    1
7     2     47    1
8     3     4     2
9     3     5     1
10    5     6     1
11    6     7     1
12    6     8     1
13    6     40    1
14    8     9     1
15    9     10    2
16    9     11    1
17    9     21    1
18    11    12    1
19    11    48    1
20    11    49    1
21    12    13    1
22    12    50    1
23    12    51    1
24    13    14    1
25    13    52    1
26    13    53    1
27    14    15    1
28    14    54    1
29    14    55    1
30    15    20    ar
31    15    16    ar
32    16    17    ar
33    16    56    1
34    17    18    ar
35    17    57    1
36    18    19    ar
37    18    58    1
38    19    20    ar
39    19    59    1
40    20    60    1
41    21    22    1
42    21    61    1
43    21    62    1
44    22    23    2
45    22    24    am
46    24    35    1
47    24    25    1
48    25    26    1
49    25    63    1
50    25    64    1
51    26    27    1
52    26    28    1
53    26    34    1
54    28    33    1
55    28    29    1
56    28    65    1
57    29    30    1
58    29    66    1
59    29    67    1
60    30    31    1
61    30    68    1
62    30    69    1
63    31    32    1
64    31    70    1
65    31    71    1
66    32    33    1
67    32    72    1
68    32    73    1
69    33    74    1
70    33    75    1
71    34    35    1
72    34    76    1
73    34    77    1
74    35    36    1
75    35    37    1
76    37    38    ar
77    37    39    ar
78    40    41    1
79    40    42    1
80    40    78    1
81    41    79    1
82    41    80    1
83    41    81    1
84    42    82    1
85    42    83    1
86    42    84    1
@<TRIPOS>SUBSTRUCTURE
1   ZINC000004097309 1     RESIDUE    1   A     ZIN   1
