@<TRIPOS>MOLECULE
ZINC000000538550
50    54    1     0     0
SMALL
USER_CHARGES
@<TRIPOS>ATOM
1      O1      0.0021   -0.0041    0.0020 O.2      1 ZINC000000538550   -0.4800
2      C2     -0.0144    1.2087    0.0087 C.2      1 ZINC000000538550    0.5300
3      C3     -1.2443    2.0911    0.0318 C.3      1 ZINC000000538550   -0.1200
4      C4     -0.6882    3.4965    0.0318 C.ar     1 ZINC000000538550   -0.1300
5      C5     -1.2823    4.7381    0.0478 C.ar     1 ZINC000000538550   -0.0400
6      C6     -0.4984    5.8789    0.0429 C.ar     1 ZINC000000538550   -0.1200
7      C7     -1.1450    7.2400    0.0608 C.3      1 ZINC000000538550   -0.1000
8      C8     -1.1163    7.7996    1.4845 C.3      1 ZINC000000538550   -0.0100
9      N9     -1.7465    9.1264    1.5019 N.4      1 ZINC000000538550   -0.3900
10     H10    -1.2932    9.7228    0.8259 H        1 ZINC000000538550    0.4200
11     C11    -1.6121    9.7144    2.8412 C.3      1 ZINC000000538550    0.0000
12     C12    -2.2519   11.1045    2.8548 C.3      1 ZINC000000538550    0.0300
13     N13    -3.6714   10.9908    2.4910 N.3      1 ZINC000000538550   -0.4600
14     C14    -4.3027   12.2345    2.5450 C.2      1 ZINC000000538550    0.3200
15     N15    -3.6529   13.3004    2.8750 N.2      1 ZINC000000538550   -0.4900
16     S16    -4.7097   14.6233    2.8407 S.3      1 ZINC000000538550    0.2500
17     C17    -6.1400   13.7128    2.3504 C.ar     1 ZINC000000538550   -0.1300
18     C18    -7.4570   14.0689    2.0953 C.ar     1 ZINC000000538550   -0.0800
19     C19    -8.3637   13.1021    1.7205 C.ar     1 ZINC000000538550   -0.0700
20     C20    -7.9579   11.7789    1.5997 C.ar     1 ZINC000000538550   -0.1200
21     C21    -6.6707   11.4122    1.8464 C.ar     1 ZINC000000538550   -0.0600
22     C22    -5.7148   12.3768    2.2258 C.ar     1 ZINC000000538550   -0.1300
23     C23    -3.8226   10.3806    1.1625 C.3      1 ZINC000000538550    0.0200
24     C24    -3.1699    8.9965    1.1632 C.3      1 ZINC000000538550   -0.0100
25     C25     0.8806    5.7660    0.0221 C.ar     1 ZINC000000538550    0.0100
26     Cl26    1.8641    7.1965    0.0166 Cl       1 ZINC000000538550   -0.0500
27     C27     1.4786    4.5213    0.0061 C.ar     1 ZINC000000538550   -0.1300
28     C28     0.6953    3.3694    0.0109 C.ar     1 ZINC000000538550    0.1800
29     N29     1.0557    2.0214    0.0028 N.am     1 ZINC000000538550   -0.6600
30     H30    -1.8529    1.9213   -0.8563 H        1 ZINC000000538550    0.1300
31     H31    -1.8267    1.9109    0.9353 H        1 ZINC000000538550    0.1300
32     H32    -2.3589    4.8221    0.0636 H        1 ZINC000000538550    0.1400
33     H33    -0.5997    7.9100   -0.6040 H        1 ZINC000000538550    0.1000
34     H34    -2.1783    7.1559   -0.2758 H        1 ZINC000000538550    0.1000
35     H35    -1.6615    7.1296    2.1493 H        1 ZINC000000538550    0.1400
36     H36    -0.0830    7.8837    1.8211 H        1 ZINC000000538550    0.1300
37     H37    -2.1128    9.0769    3.5698 H        1 ZINC000000538550    0.1400
38     H38    -0.5558    9.7982    3.0969 H        1 ZINC000000538550    0.1400
39     H39    -2.1655   11.5349    3.8524 H        1 ZINC000000538550    0.1300
40     H40    -1.7426   11.7463    2.1360 H        1 ZINC000000538550    0.0800
41     H41    -7.7693   15.0984    2.1905 H        1 ZINC000000538550    0.1400
42     H42    -9.3901   13.3726    1.5209 H        1 ZINC000000538550    0.1400
43     H43    -8.6763   11.0282    1.3052 H        1 ZINC000000538550    0.1400
44     H44    -6.3786   10.3773    1.7463 H        1 ZINC000000538550    0.1300
45     H45    -4.8820   10.2830    0.9255 H        1 ZINC000000538550    0.1400
46     H46    -3.3391   11.0106    0.4158 H        1 ZINC000000538550    0.0800
47     H47    -3.2683    8.5479    0.1747 H        1 ZINC000000538550    0.1500
48     H48    -3.6627    8.3628    1.9005 H        1 ZINC000000538550    0.1400
49     H49     2.5555    4.4408   -0.0101 H        1 ZINC000000538550    0.1500
50     H50     1.9733    1.7071   -0.0071 H        1 ZINC000000538550    0.4200
@<TRIPOS>BOND
1     1     2     2
2     2     29    am
3     2     3     1
4     3     4     1
5     3     30    1
6     3     31    1
7     4     28    ar
8     4     5     ar
9     5     6     ar
10    5     32    1
11    6     7     1
12    6     25    ar
13    7     8     1
14    7     33    1
15    7     34    1
16    8     9     1
17    8     35    1
18    8     36    1
19    9     10    1
20    9     24    1
21    9     11    1
22    11    12    1
23    11    37    1
24    11    38    1
25    12    13    1
26    12    39    1
27    12    40    1
28    13    14    1
29    13    23    1
30    14    22    1
31    14    15    2
32    15    16    1
33    16    17    1
34    17    22    ar
35    17    18    ar
36    18    19    ar
37    18    41    1
38    19    20    ar
39    19    42    1
40    20    21    ar
41    20    43    1
42    21    22    ar
43    21    44    1
44    23    24    1
45    23    45    1
46    23    46    1
47    24    47    1
48    24    48    1
49    25    26    1
50    25    27    ar
51    27    28    ar
52    27    49    1
53    28    29    1
54    29    50    1
@<TRIPOS>SUBSTRUCTURE
1   ZINC000000538550 1     RESIDUE    1   A     ZIN   1
