@<TRIPOS>MOLECULE
ZINC000003960338
40    42    1     0     0
SMALL
USER_CHARGES
@<TRIPOS>ATOM
1      C1     -0.0187    1.5258    0.0104 C.3      1 ZINC000003960338   -0.1400
2      C2      0.0021   -0.0041    0.0020 C.3      1 ZINC000003960338   -0.1400
3      C3      0.7309   -0.5033    1.2229 C.2      1 ZINC000003960338    0.5100
4      O4      1.1887    0.2867    2.0212 O.2      1 ZINC000003960338   -0.5400
5      N5      0.8741   -1.8277    1.4277 N.am     1 ZINC000003960338   -0.7400
6      C6      1.5826   -2.3130    2.6146 C.3      1 ZINC000003960338    0.1200
7      C7      1.6034   -3.8428    2.6062 C.3      1 ZINC000003960338   -0.1200
8      C8      2.3434   -4.3497    3.8457 C.3      1 ZINC000003960338   -0.0400
9      H9      1.9043   -3.9238    4.7479 H        1 ZINC000003960338    0.0800
10     C10     3.8419   -3.9908    3.7587 C.3      1 ZINC000003960338   -0.1200
11     C11     4.4468   -5.2498    3.1022 C.3      1 ZINC000003960338   -0.0800
12     C12     3.5103   -6.3791    3.4738 C.ar     1 ZINC000003960338   -0.1200
13     C13     3.6980   -7.7504    3.4435 C.ar     1 ZINC000003960338   -0.0700
14     C14     2.6877   -8.6049    3.8311 C.ar     1 ZINC000003960338   -0.1300
15     C15     1.4652   -8.0938    4.2586 C.ar     1 ZINC000003960338    0.1000
16     O16     0.3398   -8.7445    4.6630 O.3      1 ZINC000003960338   -0.3000
17     C17    -0.4929   -7.8353    5.4027 C.3      1 ZINC000003960338    0.0500
18     C18    -0.1140   -6.4598    4.8044 C.3      1 ZINC000003960338   -0.1100
19     C19     1.2901   -6.7172    4.2924 C.ar     1 ZINC000003960338   -0.1600
20     C20     2.2978   -5.8619    3.9028 C.ar     1 ZINC000003960338   -0.0400
21     H21     1.0039    1.9031    0.0027 H        1 ZINC000003960338    0.0600
22     H22    -0.5459    1.8868   -0.8726 H        1 ZINC000003960338    0.0600
23     H23    -0.5289    1.8773    0.9072 H        1 ZINC000003960338    0.0600
24     H24    -1.0205   -0.3814    0.0098 H        1 ZINC000003960338    0.0900
25     H25     0.5123   -0.3556   -0.8948 H        1 ZINC000003960338    0.0900
26     H26     0.5079   -2.4595    0.7893 H        1 ZINC000003960338    0.4000
27     H27     2.6052   -1.9357    2.6069 H        1 ZINC000003960338    0.0700
28     H28     1.0724   -1.9615    3.5114 H        1 ZINC000003960338    0.0700
29     H29     0.5808   -4.2201    2.6139 H        1 ZINC000003960338    0.0700
30     H30     2.1136   -4.1943    1.7094 H        1 ZINC000003960338    0.0700
31     H31     3.9944   -3.1142    3.1290 H        1 ZINC000003960338    0.0800
32     H32     4.2608   -3.8328    4.7525 H        1 ZINC000003960338    0.0800
33     H33     4.4845   -5.1307    2.0194 H        1 ZINC000003960338    0.0800
34     H34     5.4445   -5.4402    3.4975 H        1 ZINC000003960338    0.0800
35     H35     4.6436   -8.1543    3.1131 H        1 ZINC000003960338    0.1300
36     H36     2.8449   -9.6731    3.8026 H        1 ZINC000003960338    0.1300
37     H37    -1.5475   -8.0528    5.2335 H        1 ZINC000003960338    0.1100
38     H38    -0.2556   -7.8725    6.4659 H        1 ZINC000003960338    0.0800
39     H39    -0.7839   -6.1926    3.9871 H        1 ZINC000003960338    0.0900
40     H40    -0.1127   -5.6874    5.5735 H        1 ZINC000003960338    0.0900
@<TRIPOS>BOND
1     1     2     1
2     1     21    1
3     1     22    1
4     1     23    1
5     2     3     1
6     2     24    1
7     2     25    1
8     3     4     2
9     3     5     am
10    5     6     1
11    5     26    1
12    6     7     1
13    6     27    1
14    6     28    1
15    7     8     1
16    7     29    1
17    7     30    1
18    8     9     1
19    8     20    1
20    8     10    1
21    10    11    1
22    10    31    1
23    10    32    1
24    11    12    1
25    11    33    1
26    11    34    1
27    12    20    ar
28    12    13    ar
29    13    14    ar
30    13    35    1
31    14    15    ar
32    14    36    1
33    15    19    ar
34    15    16    1
35    16    17    1
36    17    18    1
37    17    37    1
38    17    38    1
39    18    19    1
40    18    39    1
41    18    40    1
42    19    20    ar
@<TRIPOS>SUBSTRUCTURE
1   ZINC000003960338 1     RESIDUE    1   A     ZIN   1
