@<TRIPOS>MOLECULE
ZINC000001542930
63    65    1     0     0
SMALL
USER_CHARGES
@<TRIPOS>ATOM
1      C1     -0.0187    1.5258    0.0104 C.3      1 ZINC000001542930   -0.1500
2      C2      0.0021   -0.0041    0.0020 C.3      1 ZINC000001542930   -0.1300
3      C3      0.7421   -0.5109    1.2415 C.3      1 ZINC000001542930   -0.1200
4      C4      0.7628   -2.0407    1.2331 C.3      1 ZINC000001542930   -0.1200
5      C5      1.5028   -2.5476    2.4727 C.3      1 ZINC000001542930   -0.1200
6      C6      1.5236   -4.0774    2.4642 C.3      1 ZINC000001542930   -0.1100
7      C7      2.2636   -4.5842    3.7038 C.3      1 ZINC000001542930   -0.0200
8      C8      3.6989   -4.0547    3.6929 C.3      1 ZINC000001542930   -0.1400
9      C9      1.5474   -4.0908    4.9626 C.3      1 ZINC000001542930   -0.1400
10     C10     2.2840   -6.0911    3.6955 C.ar     1 ZINC000001542930   -0.0200
11     C11     1.6900   -6.7836    2.6580 C.ar     1 ZINC000001542930   -0.1800
12     C12     1.7132   -8.1702    2.6505 C.ar     1 ZINC000001542930    0.1500
13     O13     1.1314   -8.8518    1.6289 O.3      1 ZINC000001542930   -0.4900
14     C14     2.3292   -8.8642    3.6831 C.ar     1 ZINC000001542930   -0.1900
15     C15     2.9193   -8.1694    4.7265 C.ar     1 ZINC000001542930    0.1600
16     C16     2.9009   -6.7778    4.7214 C.ar     1 ZINC000001542930   -0.1600
17     O17     3.5165   -8.8040    5.7684 O.3      1 ZINC000001542930   -0.3100
18     C18     3.8265  -10.1933    5.6363 C.3      1 ZINC000001542930    0.1200
19     C19     5.0154  -10.3692    4.6895 C.3      1 ZINC000001542930   -0.1800
20     C20     4.1681  -10.7786    7.0080 C.3      1 ZINC000001542930   -0.1400
21     C21     2.6001  -10.9038    5.0620 C.3      1 ZINC000001542930   -0.1200
22     H22     1.7331  -10.6934    5.6882 H        1 ZINC000001542930    0.0900
23     C23     2.8223  -12.4130    4.9928 C.3      1 ZINC000001542930   -0.1100
24     C24     1.5293  -13.0809    4.5064 C.3      1 ZINC000001542930   -0.1700
25     C25     1.0980  -12.4355    3.2092 C.2      1 ZINC000001542930    0.3600
26     O26     0.8204  -13.1119    2.2481 O.2      1 ZINC000001542930   -0.4500
27     C27     1.0209  -10.9240    3.1373 C.3      1 ZINC000001542930   -0.1700
28     C28     2.3508  -10.3666    3.6503 C.3      1 ZINC000001542930   -0.0300
29     H29     3.1554  -10.6899    2.9899 H        1 ZINC000001542930    0.0900
30     H30     1.0039    1.9031    0.0027 H        1 ZINC000001542930    0.0500
31     H31    -0.5459    1.8868   -0.8726 H        1 ZINC000001542930    0.0500
32     H32    -0.5289    1.8773    0.9072 H        1 ZINC000001542930    0.0500
33     H33    -1.0205   -0.3814    0.0098 H        1 ZINC000001542930    0.0600
34     H34     0.5123   -0.3556   -0.8948 H        1 ZINC000001542930    0.0600
35     H35     1.7647   -0.1336    1.2338 H        1 ZINC000001542930    0.0600
36     H36     0.2319   -0.1594    2.1383 H        1 ZINC000001542930    0.0600
37     H37    -0.2598   -2.4180    1.2409 H        1 ZINC000001542930    0.0600
38     H38     1.2730   -2.3923    0.3363 H        1 ZINC000001542930    0.0600
39     H39     2.5254   -2.1703    2.4649 H        1 ZINC000001542930    0.0700
40     H40     0.9926   -2.1961    3.3695 H        1 ZINC000001542930    0.0700
41     H41     0.5010   -4.4547    2.4720 H        1 ZINC000001542930    0.0700
42     H42     2.0337   -4.4289    1.5675 H        1 ZINC000001542930    0.0700
43     H43     3.6842   -2.9648    3.6989 H        1 ZINC000001542930    0.0600
44     H44     4.2261   -4.4157    4.5760 H        1 ZINC000001542930    0.0600
45     H45     4.2091   -4.4062    2.7961 H        1 ZINC000001542930    0.0600
46     H46     0.5248   -4.4681    4.9703 H        1 ZINC000001542930    0.0600
47     H47     2.0746   -4.4519    5.8456 H        1 ZINC000001542930    0.0600
48     H48     1.5326   -3.0009    4.9686 H        1 ZINC000001542930    0.0600
49     H49     1.2083   -6.2462    1.8546 H        1 ZINC000001542930    0.1400
50     H50     1.7262   -9.0339    0.8885 H        1 ZINC000001542930    0.3900
51     H51     3.3648   -6.2320    5.5297 H        1 ZINC000001542930    0.1300
52     H52     5.8810   -9.8427    5.0915 H        1 ZINC000001542930    0.0700
53     H53     5.2482  -11.4295    4.5917 H        1 ZINC000001542930    0.0800
54     H54     4.7640   -9.9606    3.7107 H        1 ZINC000001542930    0.0600
55     H55     3.3148  -10.6609    7.6760 H        1 ZINC000001542930    0.0700
56     H56     4.4036  -11.8376    6.9027 H        1 ZINC000001542930    0.0800
57     H57     5.0291  -10.2543    7.4225 H        1 ZINC000001542930    0.0700
58     H58     3.6312  -12.6317    4.2956 H        1 ZINC000001542930    0.0700
59     H59     3.0785  -12.7904    5.9828 H        1 ZINC000001542930    0.0900
60     H60     1.7071  -14.1438    4.3433 H        1 ZINC000001542930    0.0900
61     H61     0.7481  -12.9514    5.2555 H        1 ZINC000001542930    0.1000
62     H62     0.8636  -10.6110    2.1051 H        1 ZINC000001542930    0.1200
63     H63     0.2020  -10.5660    3.7612 H        1 ZINC000001542930    0.1000
@<TRIPOS>BOND
1     1     2     1
2     1     30    1
3     1     31    1
4     1     32    1
5     2     3     1
6     2     33    1
7     2     34    1
8     3     4     1
9     3     35    1
10    3     36    1
11    4     5     1
12    4     37    1
13    4     38    1
14    5     6     1
15    5     39    1
16    5     40    1
17    6     7     1
18    6     41    1
19    6     42    1
20    7     8     1
21    7     9     1
22    7     10    1
23    8     43    1
24    8     44    1
25    8     45    1
26    9     46    1
27    9     47    1
28    9     48    1
29    10    16    ar
30    10    11    ar
31    11    12    ar
32    11    49    1
33    12    13    1
34    12    14    ar
35    13    50    1
36    14    28    1
37    14    15    ar
38    15    16    ar
39    15    17    1
40    16    51    1
41    17    18    1
42    18    19    1
43    18    20    1
44    18    21    1
45    19    52    1
46    19    53    1
47    19    54    1
48    20    55    1
49    20    56    1
50    20    57    1
51    21    22    1
52    21    28    1
53    21    23    1
54    23    24    1
55    23    58    1
56    23    59    1
57    24    25    1
58    24    60    1
59    24    61    1
60    25    26    2
61    25    27    1
62    27    28    1
63    27    62    1
64    27    63    1
65    28    29    1
@<TRIPOS>SUBSTRUCTURE
1   ZINC000001542930 1     RESIDUE    1   A     ZIN   1
