@<TRIPOS>MOLECULE
ZINC000000491073
42    45    1     0     0
SMALL
USER_CHARGES
@<TRIPOS>ATOM
1      C1     -0.0173    1.4248    0.0099 C.3      1 ZINC000000491073    0.0300
2      O2      0.0021   -0.0041    0.0020 O.3      1 ZINC000000491073   -0.3100
3      C3     -1.2011   -0.6379    0.0101 C.ar     1 ZINC000000491073    0.1000
4      C4     -2.3957    0.0706    0.0194 C.ar     1 ZINC000000491073   -0.1600
5      C5     -3.6135   -0.5687    0.0046 C.ar     1 ZINC000000491073   -0.1200
6      C6     -3.7145   -1.9661   -0.0455 C.ar     1 ZINC000000491073   -0.0500
7      C7     -5.0991   -2.5165   -0.2251 C.3      1 ZINC000000491073    0.1200
8      N8     -5.1400   -3.6319   -1.1491 N.3      1 ZINC000000491073   -0.5700
9      C9     -6.5076   -3.8655   -1.6320 C.3      1 ZINC000000491073    0.0400
10     C10    -4.5408   -4.8539   -0.6882 C.3      1 ZINC000000491073    0.0700
11     C11    -3.0592   -4.9443   -0.9113 C.3      1 ZINC000000491073   -0.1000
12     C12    -2.2662   -4.1512    0.1094 C.3      1 ZINC000000491073   -0.0100
13     C13    -2.5699   -4.5938    1.5019 C.2      1 ZINC000000491073   -0.1100
14     C14    -1.7171   -5.1022    2.3268 C.2      1 ZINC000000491073   -0.1900
15     C15    -0.2735   -5.3149    2.0011 C.3      1 ZINC000000491073    0.1400
16     H16     0.0448   -6.2744    2.4088 H        1 ZINC000000491073    0.0700
17     O17     0.4980   -4.2743    2.6044 O.3      1 ZINC000000491073   -0.5500
18     C18    -0.0261   -5.3074    0.5064 C.3      1 ZINC000000491073   -0.1100
19     C19    -0.7751   -4.2308   -0.2289 C.3      1 ZINC000000491073    0.0900
20     H20    -0.6796   -4.4082   -1.3001 H        1 ZINC000000491073    0.0800
21     O21    -0.2747   -2.9210    0.0625 O.3      1 ZINC000000491073   -0.2700
22     C22    -1.2932   -2.0358    0.0035 C.ar     1 ZINC000000491073    0.0900
23     C23    -2.5448   -2.6655   -0.0132 C.ar     1 ZINC000000491073   -0.1100
24     H24     1.0053    1.8021    0.0021 H        1 ZINC000000491073    0.1000
25     H25    -0.5445    1.7859   -0.8732 H        1 ZINC000000491073    0.0500
26     H26    -0.5275    1.7763    0.9067 H        1 ZINC000000491073    0.0500
27     H27    -2.3677    1.1501    0.0391 H        1 ZINC000000491073    0.1300
28     H28    -4.5170    0.0223    0.0328 H        1 ZINC000000491073    0.1300
29     H29    -5.4749   -2.8472    0.7431 H        1 ZINC000000491073    0.0400
30     H30    -5.7470   -1.7243   -0.6003 H        1 ZINC000000491073    0.0900
31     H31    -6.8435   -3.0009   -2.2044 H        1 ZINC000000491073    0.0700
32     H32    -6.5220   -4.7504   -2.2682 H        1 ZINC000000491073    0.0700
33     H33    -7.1720   -4.0186   -0.7815 H        1 ZINC000000491073    0.0300
34     H34    -4.7359   -4.9529    0.3796 H        1 ZINC000000491073    0.0300
35     H35    -5.0189   -5.6881   -1.2016 H        1 ZINC000000491073    0.0700
36     H36    -2.7579   -5.9904   -0.8559 H        1 ZINC000000491073    0.0800
37     H37    -2.8293   -4.5659   -1.9073 H        1 ZINC000000491073    0.0800
38     H38    -3.5866   -4.4790    1.8479 H        1 ZINC000000491073    0.1100
39     H39    -2.0659   -5.3898    3.3076 H        1 ZINC000000491073    0.1100
40     H40     0.4211   -4.2356    3.5676 H        1 ZINC000000491073    0.3700
41     H41     1.0410   -5.1702    0.3313 H        1 ZINC000000491073    0.0900
42     H42    -0.3204   -6.2751    0.1004 H        1 ZINC000000491073    0.1000
@<TRIPOS>BOND
1     1     2     1
2     1     24    1
3     1     25    1
4     1     26    1
5     2     3     1
6     3     22    ar
7     3     4     ar
8     4     5     ar
9     4     27    1
10    5     6     ar
11    5     28    1
12    6     23    ar
13    6     7     1
14    7     8     1
15    7     29    1
16    7     30    1
17    8     9     1
18    8     10    1
19    9     31    1
20    9     32    1
21    9     33    1
22    10    11    1
23    10    34    1
24    10    35    1
25    11    12    1
26    11    36    1
27    11    37    1
28    12    19    1
29    12    23    1
30    12    13    1
31    13    14    2
32    13    38    1
33    14    15    1
34    14    39    1
35    15    16    1
36    15    17    1
37    15    18    1
38    17    40    1
39    18    19    1
40    18    41    1
41    18    42    1
42    19    20    1
43    19    21    1
44    21    22    1
45    22    23    ar
@<TRIPOS>SUBSTRUCTURE
1   ZINC000000491073 1     RESIDUE    1   A     ZIN   1
