@<TRIPOS>MOLECULE
ZINC000085555528
119   127   1     0     0
SMALL
USER_CHARGES
@<TRIPOS>ATOM
1      C1     -0.2681    1.2064    0.8264 C.3      1 ZINC000085555528   -0.1600
2      C2     -0.1601   -0.3105    0.6576 C.3      1 ZINC000085555528   -0.1200
3      C3      0.8140   -0.8711    1.6958 C.3      1 ZINC000085555528   -0.0200
4      C4      0.2997   -0.4581    3.0413 C.2      1 ZINC000085555528   -0.1200
5      C5      0.0446   -1.3142    3.9841 C.2      1 ZINC000085555528   -0.1700
6      C6      0.2694   -2.7845    3.7906 C.3      1 ZINC000085555528    0.0200
7      N7      0.0677   -3.1657    2.3899 N.4      1 ZINC000085555528   -0.3700
8      H8     -0.9123   -3.1272    2.1527 H        1 ZINC000085555528    0.4300
9      C9      0.5870   -4.5533    2.2285 C.3      1 ZINC000085555528   -0.0100
10     C10     2.0970   -4.3608    1.9482 C.3      1 ZINC000085555528   -0.1400
11     C11     2.1310   -3.0438    1.1217 C.3      1 ZINC000085555528    0.0000
12     C12     2.2014   -3.4092   -0.3353 C.ar     1 ZINC000085555528   -0.2100
13     C13     3.3106   -2.7648   -0.8925 C.ar     1 ZINC000085555528    0.1900
14     C14     3.6284   -2.9452   -2.2407 C.ar     1 ZINC000085555528   -0.2200
15     C15     2.7943   -3.7710   -2.9859 C.ar     1 ZINC000085555528    0.2100
16     O16     3.0680   -3.9733   -4.3016 O.3      1 ZINC000085555528   -0.2700
17     C17     4.2157   -3.3098   -4.8350 C.3      1 ZINC000085555528    0.0200
18     C18     1.6922   -4.3935   -2.4234 C.ar     1 ZINC000085555528   -0.1700
19     C19     0.8212   -5.2719   -3.2846 C.3      1 ZINC000085555528    0.0700
20     C20     1.6702   -6.4678   -3.6960 C.2      1 ZINC000085555528    0.4500
21     O21     1.3271   -7.5856   -3.3916 O.2      1 ZINC000085555528   -0.4900
22     O22     2.7996   -6.2798   -4.3967 O.3      1 ZINC000085555528   -0.3200
23     C23     3.5585   -7.4650   -4.7543 C.3      1 ZINC000085555528    0.0300
24     C24    -0.4125   -5.8093   -2.4771 C.3      1 ZINC000085555528   -0.1100
25     C25    -1.6053   -5.1213   -3.1315 C.3      1 ZINC000085555528   -0.1300
26     H26    -1.5237   -5.0903   -4.2081 H        1 ZINC000085555528    0.1200
27     C27    -1.5958   -3.6962   -2.4885 C.3      1 ZINC000085555528   -0.0300
28     N28    -2.2601   -3.0034   -3.6433 N.4      1 ZINC000085555528   -0.3900
29     H29    -2.0761   -3.4904   -4.5129 H        1 ZINC000085555528    0.4400
30     C30    -3.6687   -3.1634   -3.3331 C.3      1 ZINC000085555528   -0.0400
31     C31    -4.0382   -4.6546   -3.4156 C.3      1 ZINC000085555528    0.1200
32     O32    -4.1978   -5.0057   -4.7941 O.3      1 ZINC000085555528   -0.5500
33     C33    -5.3843   -4.8571   -2.7105 C.3      1 ZINC000085555528   -0.1500
34     C34    -6.4552   -4.0122   -3.4035 C.3      1 ZINC000085555528   -0.1700
35     C35    -3.0076   -5.6050   -2.7829 C.3      1 ZINC000085555528   -0.1100
36     C36    -1.6043   -1.6932   -3.6620 C.3      1 ZINC000085555528    0.0000
37     C37    -0.0845   -2.0655   -3.8410 C.3      1 ZINC000085555528   -0.0700
38     C38     0.0105   -3.2667   -4.7637 C.2      1 ZINC000085555528   -0.2100
39     C39     0.3523   -4.5503   -4.5319 C.2      1 ZINC000085555528    0.1500
40     N40     0.2020   -5.2630   -5.7168 N.pl3    1 ZINC000085555528   -0.5900
41     C41    -0.1334   -4.4376   -6.7419 C.ar     1 ZINC000085555528    0.1200
42     C42    -0.3291   -4.6561   -8.1052 C.ar     1 ZINC000085555528   -0.1200
43     C43    -0.6750   -3.5542   -8.8693 C.ar     1 ZINC000085555528   -0.0800
44     C44    -0.8235   -2.2907   -8.3218 C.ar     1 ZINC000085555528   -0.1300
45     C45    -0.6318   -2.0486   -6.9828 C.ar     1 ZINC000085555528   -0.0800
46     C46    -0.2772   -3.1460   -6.1936 C.ar     1 ZINC000085555528   -0.1200
47     C47     1.3731   -4.2250   -1.0823 C.ar     1 ZINC000085555528   -0.0300
48     N48     3.9538   -1.9719    0.0439 N.3      1 ZINC000085555528   -0.4600
49     C49     5.4106   -2.1445   -0.0316 C.3      1 ZINC000085555528    0.0200
50     C50     3.4452   -2.3220    1.3963 C.3      1 ZINC000085555528    0.1100
51     H51     4.1446   -2.9767    1.9162 H        1 ZINC000085555528    0.1100
52     C52     3.2530   -1.0181    2.1642 C.3      1 ZINC000085555528    0.1500
53     O53     2.8296   -1.3048    3.4986 O.3      1 ZINC000085555528   -0.5200
54     C54     4.5516   -0.2543    2.1982 C.2      1 ZINC000085555528    0.4300
55     O55     5.0790   -0.0059    3.2565 O.2      1 ZINC000085555528   -0.4800
56     O56     5.1225    0.1501    1.0526 O.3      1 ZINC000085555528   -0.3100
57     C57     6.3725    0.8809    1.1611 C.3      1 ZINC000085555528    0.0300
58     C58     2.1644   -0.1989    1.4426 C.3      1 ZINC000085555528    0.0900
59     H59     2.3652   -0.1819    0.3713 H        1 ZINC000085555528    0.1300
60     O60     2.1465    1.1575    1.9603 O.3      1 ZINC000085555528   -0.3500
61     C61     2.9355    2.0541    1.3476 C.2      1 ZINC000085555528    0.4400
62     C62     2.9694    3.4816    1.8295 C.3      1 ZINC000085555528   -0.1500
63     O63     3.6185    1.7167    0.4098 O.2      1 ZINC000085555528   -0.4600
64     C64     0.8618   -2.3403    1.4948 C.3      1 ZINC000085555528    0.0600
65     H65     0.2809   -2.4388    0.5778 H        1 ZINC000085555528    0.1100
66     H66     0.7136    1.6585    0.6850 H        1 ZINC000085555528    0.0700
67     H67    -0.9620    1.6058    0.0868 H        1 ZINC000085555528    0.0700
68     H68    -0.6327    1.4354    1.8278 H        1 ZINC000085555528    0.0700
69     H69    -1.1417   -0.7626    0.7991 H        1 ZINC000085555528    0.0700
70     H70     0.2046   -0.5395   -0.3437 H        1 ZINC000085555528    0.0800
71     H71     0.1352    0.5916    3.2345 H        1 ZINC000085555528    0.1500
72     H72    -0.3379   -0.9591    4.9296 H        1 ZINC000085555528    0.1600
73     H73     1.2887   -3.0329    4.0862 H        1 ZINC000085555528    0.1500
74     H74    -0.4294   -3.3390    4.4169 H        1 ZINC000085555528    0.1400
75     H75     0.4386   -5.1254    3.1444 H        1 ZINC000085555528    0.1500
76     H76     0.1022   -5.0468    1.3862 H        1 ZINC000085555528    0.1300
77     H77     2.6509   -4.2461    2.8799 H        1 ZINC000085555528    0.1100
78     H78     2.4902   -5.1930    1.3642 H        1 ZINC000085555528    0.1300
79     H79     4.4862   -2.4630   -2.6858 H        1 ZINC000085555528    0.1500
80     H80     4.0972   -2.2321   -4.7228 H        1 ZINC000085555528    0.0600
81     H81     5.1062   -3.6353   -4.2972 H        1 ZINC000085555528    0.0600
82     H82     4.3193   -3.5560   -5.8918 H        1 ZINC000085555528    0.1100
83     H83     3.8600   -7.9905   -3.8482 H        1 ZINC000085555528    0.0700
84     H84     2.9400   -8.1215   -5.3663 H        1 ZINC000085555528    0.0700
85     H85     4.4451   -7.1726   -5.3169 H        1 ZINC000085555528    0.1100
86     H86    -0.4883   -6.8984   -2.5618 H        1 ZINC000085555528    0.1200
87     H87    -0.3315   -5.5333   -1.4193 H        1 ZINC000085555528    0.1000
88     H88    -2.2459   -3.6734   -1.5985 H        1 ZINC000085555528    0.1300
89     H89    -0.6213   -3.3354   -2.2344 H        1 ZINC000085555528    0.1400
90     H90    -3.8701   -2.7945   -2.3285 H        1 ZINC000085555528    0.1300
91     H91    -4.2672   -2.6042   -4.0527 H        1 ZINC000085555528    0.1300
92     H92    -4.8883   -4.5054   -5.2501 H        1 ZINC000085555528    0.3900
93     H93    -5.6646   -5.9093   -2.7579 H        1 ZINC000085555528    0.1000
94     H94    -5.2981   -4.5507   -1.6680 H        1 ZINC000085555528    0.0800
95     H95    -7.4123   -4.1562   -2.9021 H        1 ZINC000085555528    0.0800
96     H96    -6.1749   -2.9600   -3.3561 H        1 ZINC000085555528    0.0600
97     H97    -6.5414   -4.3186   -4.4460 H        1 ZINC000085555528    0.0700
98     H98    -3.1453   -6.6126   -3.1751 H        1 ZINC000085555528    0.1100
99     H99    -3.1258   -5.6128   -1.6999 H        1 ZINC000085555528    0.1000
100    H100   -1.9511   -1.0864   -4.5017 H        1 ZINC000085555528    0.1300
101    H101   -1.7590   -1.1578   -2.7222 H        1 ZINC000085555528    0.1300
102    H102    0.4185   -1.2157   -4.3336 H        1 ZINC000085555528    0.1100
103    H103    0.3954   -2.2233   -2.8904 H        1 ZINC000085555528    0.1000
104    H104    0.2943   -6.2230   -5.8120 H        1 ZINC000085555528    0.4200
105    H105   -0.2154   -5.6363   -8.5435 H        1 ZINC000085555528    0.1400
106    H106   -0.8332   -3.6845   -9.9299 H        1 ZINC000085555528    0.1300
107    H107   -1.0988   -1.4700   -8.9671 H        1 ZINC000085555528    0.1300
108    H108   -0.7504   -1.0614   -6.5632 H        1 ZINC000085555528    0.1300
109    H109    0.5151   -4.7111   -0.6420 H        1 ZINC000085555528    0.1400
110    H110    5.7800   -1.7122   -0.9615 H        1 ZINC000085555528    0.0900
111    H111    5.8804   -1.6425    0.8142 H        1 ZINC000085555528    0.0900
112    H112    5.6525   -3.2070   -0.0035 H        1 ZINC000085555528    0.0500
113    H113    2.6883   -0.5187    4.0438 H        1 ZINC000085555528    0.4000
114    H114    6.2139    1.7874    1.7453 H        1 ZINC000085555528    0.0600
115    H115    7.1170    0.2561    1.6547 H        1 ZINC000085555528    0.0600
116    H116    6.7251    1.1477    0.1648 H        1 ZINC000085555528    0.1100
117    H117    3.7440    3.5906    2.5885 H        1 ZINC000085555528    0.1100
118    H118    3.1868    4.1431    0.9909 H        1 ZINC000085555528    0.1100
119    H119    2.0018    3.7437    2.2576 H        1 ZINC000085555528    0.1000
@<TRIPOS>BOND
1     1     2     1
2     1     66    1
3     1     67    1
4     1     68    1
5     2     3     1
6     2     69    1
7     2     70    1
8     3     58    1
9     3     64    1
10    3     4     1
11    4     5     2
12    4     71    1
13    5     6     1
14    5     72    1
15    6     7     1
16    6     73    1
17    6     74    1
18    7     8     1
19    7     64    1
20    7     9     1
21    9     10    1
22    9     75    1
23    9     76    1
24    10    11    1
25    10    77    1
26    10    78    1
27    11    50    1
28    11    12    1
29    11    64    1
30    12    47    ar
31    12    13    ar
32    13    14    ar
33    13    48    1
34    14    15    ar
35    14    79    1
36    15    16    1
37    15    18    ar
38    16    17    1
39    17    80    1
40    17    81    1
41    17    82    1
42    18    19    1
43    18    47    ar
44    19    39    1
45    19    20    1
46    19    24    1
47    20    21    2
48    20    22    1
49    22    23    1
50    23    83    1
51    23    84    1
52    23    85    1
53    24    25    1
54    24    86    1
55    24    87    1
56    25    26    1
57    25    35    1
58    25    27    1
59    27    28    1
60    27    88    1
61    27    89    1
62    28    29    1
63    28    30    1
64    28    36    1
65    30    31    1
66    30    90    1
67    30    91    1
68    31    32    1
69    31    33    1
70    31    35    1
71    32    92    1
72    33    34    1
73    33    93    1
74    33    94    1
75    34    95    1
76    34    96    1
77    34    97    1
78    35    98    1
79    35    99    1
80    36    37    1
81    36    100   1
82    36    101   1
83    37    38    1
84    37    102   1
85    37    103   1
86    38    46    1
87    38    39    2
88    39    40    1
89    40    41    1
90    40    104   1
91    41    46    ar
92    41    42    ar
93    42    43    ar
94    42    105   1
95    43    44    ar
96    43    106   1
97    44    45    ar
98    44    107   1
99    45    46    ar
100   45    108   1
101   47    109   1
102   48    49    1
103   48    50    1
104   49    110   1
105   49    111   1
106   49    112   1
107   50    51    1
108   50    52    1
109   52    53    1
110   52    54    1
111   52    58    1
112   53    113   1
113   54    55    2
114   54    56    1
115   56    57    1
116   57    114   1
117   57    115   1
118   57    116   1
119   58    59    1
120   58    60    1
121   60    61    1
122   61    62    1
123   61    63    2
124   62    117   1
125   62    118   1
126   62    119   1
127   64    65    1
@<TRIPOS>SUBSTRUCTURE
1   ZINC000085555528 1     RESIDUE    1   A     ZIN   1
