@<TRIPOS>MOLECULE
ZINC000013545634
33   33    0    0    0
SMALL
USER_CHARGES
NO_NAME
@<TRIPOS>ATOM
1 C1        0.8388    -3.0412     2.4480 C.3    1 <0>      -0.1500
2 C2        0.3500    -2.3310     1.1841 C.3    1 <0>      -0.1200
3 C3        1.2278    -2.7376    -0.0013 C.3    1 <0>      -0.1300
4 C4        0.7390    -2.0273    -1.2652 C.3    1 <0>      -0.0600
5 H5       -0.3195    -2.2399    -1.4151 H      1 <0>       0.0900
6 C6        0.9393    -0.5182    -1.1120 C.3    1 <0>      -0.1500
7 C7        1.5356    -2.5277    -2.4718 C.3    1 <0>      -0.1500
8 C8        1.4915    -4.0571    -2.4662 C.3    1 <0>      -0.1000
9 C9        2.2801    -4.5944    -3.6622 C.3    1 <0>      -0.1600
10 C10       0.8398    -2.0442    -3.7302 C.2    1 <0>       0.5300
11 O11      -0.3141    -2.3348    -3.9617 O.2    1 <0>      -0.5500
12 N12       1.5532    -1.2779    -4.5824 N.pl3  1 <0>      -0.7200
13 C13       2.8272    -0.9480    -4.3413 C.2    1 <0>       0.6700
14 O14       3.3941    -0.2542    -5.1617 O.2    1 <0>      -0.6000
15 N15       3.5224    -1.3260    -3.2624 N.am   1 <0>      -0.7000
16 C16       2.9793    -2.0964    -2.2961 C.2    1 <0>       0.5500
17 O17       3.6217    -2.4315    -1.3240 O.2    1 <0>      -0.5300
18 H18       0.7789    -4.1201     2.3047 H      1 <0>       0.0500
19 H19       1.8723    -2.7580     2.6472 H      1 <0>       0.0500
20 H20       0.2134    -2.7515     3.2924 H      1 <0>       0.0500
21 H21      -0.6836    -2.6142     0.9848 H      1 <0>       0.0600
22 H22       0.4099    -1.2521     1.3273 H      1 <0>       0.0600
23 H23       2.2613    -2.4544     0.1980 H      1 <0>       0.0800
24 H24       1.1678    -3.8164    -0.1445 H      1 <0>       0.0700
25 H25       0.6928    -0.0219    -2.0506 H      1 <0>       0.0600
26 H26       0.2892    -0.1438    -0.3213 H      1 <0>       0.0600
27 H27       1.9787    -0.3140    -0.8551 H      1 <0>       0.0500
28 H28       1.9338    -4.4299    -1.5423 H      1 <0>       0.0700
29 H29       0.4562    -4.3910    -2.5339 H      1 <0>       0.0800
30 H30       2.2487    -5.6839    -3.6581 H      1 <0>       0.0600
31 H31       1.8378    -4.2216    -4.5860 H      1 <0>       0.0600
32 H32       3.3154    -4.2605    -3.5944 H      1 <0>       0.0500
33 H33       4.4443    -1.0380    -3.1721 H      1 <0>       0.3900
@<TRIPOS>BOND
1    1    2 1
2    1   18 1
3    1   19 1
4    1   20 1
5    2    3 1
6    2   21 1
7    2   22 1
8    3    4 1
9    3   23 1
10    3   24 1
11    4    5 1
12    4    6 1
13    4    7 1
14    6   25 1
15    6   26 1
16    6   27 1
17    7   16 1
18    7    8 1
19    7   10 1
20    8    9 1
21    8   28 1
22    8   29 1
23    9   30 1
24    9   31 1
25    9   32 1
26   10   11 2
27   10   12 1
28   12   13 1
29   13   14 2
30   13   15 am
31   15   16 am
32   15   33 1
33   16   17 2
