@<TRIPOS>MOLECULE
ZINC000001485935
48    51    1     0     0
SMALL
USER_CHARGES
@<TRIPOS>ATOM
1      C1      0.9962   -0.4855   -1.1001 C.3      1 ZINC000001485935   -0.1400
2      C2      0.0430    0.1304   -0.0740 C.3      1 ZINC000001485935   -0.0400
3      H3      0.1040    1.2173   -0.1278 H        1 ZINC000001485935    0.1200
4      C4     -1.3676   -0.3089   -0.3716 C.2      1 ZINC000001485935    0.0400
5      N5     -2.3737    0.4856   -0.4902 N.2      1 ZINC000001485935   -0.4500
6      C6     -3.5508   -0.0646   -0.7541 C.2      1 ZINC000001485935    0.1000
7      C7     -4.7927    0.7266   -0.9164 C.ar     1 ZINC000001485935    0.0100
8      C8     -4.7380    2.1213   -0.9017 C.ar     1 ZINC000001485935   -0.0900
9      C9     -5.8868    2.8547   -1.0519 C.ar     1 ZINC000001485935   -0.0700
10     C10    -7.1133    2.2050   -1.2198 C.ar     1 ZINC000001485935   -0.0200
11     C11    -8.3137    2.9698   -1.3773 C.1      1 ZINC000001485935    0.2500
12     N12    -9.2660    3.5765   -1.5021 N.1      1 ZINC000001485935   -0.4100
13     C13    -7.1668    0.8079   -1.2344 C.ar     1 ZINC000001485935   -0.0700
14     C14    -6.0159    0.0768   -1.0897 C.ar     1 ZINC000001485935   -0.1000
15     C15    -3.5170   -1.4097   -0.8616 C.2      1 ZINC000001485935   -0.2400
16     S16    -1.8535   -1.9306   -0.6061 S.3      1 ZINC000001485935    0.1600
17     C17     0.4361   -0.3336    1.3300 C.3      1 ZINC000001485935    0.1800
18     O18     0.4652   -1.7617    1.3690 O.3      1 ZINC000001485935   -0.5200
19     C19    -0.5872    0.1836    2.3432 C.3      1 ZINC000001485935    0.1000
20     N20    -0.1482   -0.1583    3.6984 N.pl3    1 ZINC000001485935   -0.3800
21     C21     0.0216    0.6891    4.7281 C.2      1 ZINC000001485935    0.2500
22     N22     0.4201   -0.0046    5.7633 N.2      1 ZINC000001485935   -0.5400
23     C23     0.5158   -1.2923    5.4348 C.2      1 ZINC000001485935    0.1900
24     N24     0.1730   -1.4372    4.1817 N.2      1 ZINC000001485935   -0.3000
25     C25     1.8004    0.2062    1.6738 C.ar     1 ZINC000001485935   -0.0800
26     C26     2.8308   -0.6627    1.9774 C.ar     1 ZINC000001485935   -0.0900
27     C27     4.0843   -0.1667    2.2937 C.ar     1 ZINC000001485935    0.0900
28     F28     5.0917   -1.0164    2.5910 F        1 ZINC000001485935   -0.1300
29     C29     4.3053    1.1998    2.3049 C.ar     1 ZINC000001485935   -0.1200
30     C30     3.2748    2.0690    2.0007 C.ar     1 ZINC000001485935   -0.1200
31     C31     2.0229    1.5730    1.6799 C.ar     1 ZINC000001485935    0.0900
32     F32     1.0155    2.4226    1.3826 F        1 ZINC000001485935   -0.1300
33     H33     1.0016   -1.5695   -0.9863 H        1 ZINC000001485935    0.0700
34     H34     0.6636   -0.2274   -2.1056 H        1 ZINC000001485935    0.0700
35     H35     2.0023   -0.0982   -0.9396 H        1 ZINC000001485935    0.0700
36     H36    -3.7905    2.6230   -0.7716 H        1 ZINC000001485935    0.1400
37     H37    -5.8442    3.9338   -1.0401 H        1 ZINC000001485935    0.1400
38     H38    -8.1137    0.3049   -1.3641 H        1 ZINC000001485935    0.1400
39     H39    -6.0570   -1.0023   -1.1010 H        1 ZINC000001485935    0.1400
40     H40    -4.3594   -2.0523   -1.0710 H        1 ZINC000001485935    0.1900
41     H41    -0.4055   -2.1752    1.2911 H        1 ZINC000001485935    0.3800
42     H42    -0.6739    1.2662    2.2516 H        1 ZINC000001485935    0.1200
43     H43    -1.5559   -0.2764    2.1482 H        1 ZINC000001485935    0.0900
44     H44    -0.1417    1.7564    4.7047 H        1 ZINC000001485935    0.2100
45     H45     0.8227   -2.0880    6.0975 H        1 ZINC000001485935    0.2200
46     H46     2.6584   -1.7289    1.9683 H        1 ZINC000001485935    0.1600
47     H47     5.2830    1.5866    2.5516 H        1 ZINC000001485935    0.1500
48     H48     3.4472    3.1351    2.0098 H        1 ZINC000001485935    0.1500
@<TRIPOS>BOND
1     1     2     1
2     1     33    1
3     1     34    1
4     1     35    1
5     2     3     1
6     2     4     1
7     2     17    1
8     4     16    1
9     4     5     2
10    5     6     1
11    6     7     1
12    6     15    2
13    7     14    ar
14    7     8     ar
15    8     9     ar
16    8     36    1
17    9     10    ar
18    9     37    1
19    10    11    1
20    10    13    ar
21    11    12    3
22    13    14    ar
23    13    38    1
24    14    39    1
25    15    16    1
26    15    40    1
27    17    18    1
28    17    19    1
29    17    25    1
30    18    41    1
31    19    20    1
32    19    42    1
33    19    43    1
34    20    24    1
35    20    21    1
36    21    22    2
37    21    44    1
38    22    23    1
39    23    24    2
40    23    45    1
41    25    31    ar
42    25    26    ar
43    26    27    ar
44    26    46    1
45    27    28    1
46    27    29    ar
47    29    30    ar
48    29    47    1
49    30    31    ar
50    30    48    1
51    31    32    1
@<TRIPOS>SUBSTRUCTURE
1   ZINC000001485935 1     RESIDUE    1   A     ZIN   1
