@<TRIPOS>MOLECULE
ZINC000000002041
44    45    1     0     0
SMALL
USER_CHARGES
@<TRIPOS>ATOM
1      C1      1.8120   -2.5513   -1.6584 C.3      1 ZINC000000002041   -0.1600
2      C2      0.8418   -2.0893   -0.5692 C.3      1 ZINC000000002041   -0.1500
3      C3     -0.5747   -2.5494   -0.9193 C.3      1 ZINC000000002041   -0.0200
4      N4     -1.5062   -2.1059    0.1264 N.4      1 ZINC000000002041   -0.3900
5      H5     -1.1861   -2.4368    1.0243 H        1 ZINC000000002041    0.4200
6      C6     -1.5661   -0.6382    0.1384 C.3      1 ZINC000000002041   -0.0200
7      C7     -2.4083   -0.1718    1.3276 C.3      1 ZINC000000002041   -0.1500
8      C8     -2.5192    1.3540    1.3068 C.3      1 ZINC000000002041   -0.1600
9      C9     -2.8437   -2.6484   -0.1470 C.3      1 ZINC000000002041   -0.0100
10     C10    -2.8090   -4.1736   -0.0306 C.3      1 ZINC000000002041   -0.1000
11     C11    -4.2027   -4.7220   -0.1977 C.ar     1 ZINC000000002041   -0.0500
12     C12    -4.9838   -4.9798    0.9152 C.ar     1 ZINC000000002041   -0.1300
13     C13    -6.2624   -5.4826    0.7566 C.ar     1 ZINC000000002041   -0.0700
14     C14    -6.7636   -5.7290   -0.5047 C.ar     1 ZINC000000002041   -0.1200
15     C15    -5.9828   -5.4723   -1.6302 C.ar     1 ZINC000000002041    0.1500
16     C16    -4.7026   -4.9617   -1.4580 C.ar     1 ZINC000000002041   -0.1400
17     C17    -4.1214   -4.7949   -2.8431 C.3      1 ZINC000000002041   -0.1100
18     C18    -5.2248   -5.2693   -3.7647 C.2      1 ZINC000000002041    0.5300
19     O19    -5.1847   -5.3080   -4.9763 O.2      1 ZINC000000002041   -0.4900
20     N20    -6.2585   -5.6356   -2.9882 N.am     1 ZINC000000002041   -0.6600
21     H21     2.8211   -2.2235   -1.4089 H        1 ZINC000000002041    0.0800
22     H22     1.7898   -3.6389   -1.7272 H        1 ZINC000000002041    0.0700
23     H23     1.5161   -2.1206   -2.6149 H        1 ZINC000000002041    0.0700
24     H24     1.1377   -2.5200    0.3874 H        1 ZINC000000002041    0.0900
25     H25     0.8640   -1.0017   -0.5003 H        1 ZINC000000002041    0.0900
26     H26    -0.8706   -2.1188   -1.8759 H        1 ZINC000000002041    0.1300
27     H27    -0.5969   -3.6370   -0.9882 H        1 ZINC000000002041    0.1300
28     H28    -0.5576   -0.2341    0.2266 H        1 ZINC000000002041    0.1300
29     H29    -2.0191   -0.2855   -0.7882 H        1 ZINC000000002041    0.1300
30     H30    -3.4044   -0.6095    1.2612 H        1 ZINC000000002041    0.0900
31     H31    -1.9332   -0.4889    2.2559 H        1 ZINC000000002041    0.0900
32     H32    -1.5232    1.7917    1.3731 H        1 ZINC000000002041    0.0700
33     H33    -2.9944    1.6711    0.3784 H        1 ZINC000000002041    0.0700
34     H34    -3.1192    1.6863    2.1539 H        1 ZINC000000002041    0.0800
35     H35    -3.5539   -2.2450    0.5749 H        1 ZINC000000002041    0.1400
36     H36    -3.1506   -2.3677   -1.1545 H        1 ZINC000000002041    0.1300
37     H37    -2.1621   -4.5825   -0.8068 H        1 ZINC000000002041    0.1000
38     H38    -2.4230   -4.4546    0.9493 H        1 ZINC000000002041    0.1000
39     H39    -4.5959   -4.7893    1.9049 H        1 ZINC000000002041    0.1300
40     H40    -6.8719   -5.6838    1.6253 H        1 ZINC000000002041    0.1400
41     H41    -7.7629   -6.1220   -0.6202 H        1 ZINC000000002041    0.1300
42     H42    -3.8870   -3.7479   -3.0354 H        1 ZINC000000002041    0.1200
43     H43    -3.2323   -5.4142   -2.9614 H        1 ZINC000000002041    0.1300
44     H44    -7.0977   -5.9797   -3.3320 H        1 ZINC000000002041    0.4200
@<TRIPOS>BOND
1     1     2     1
2     1     21    1
3     1     22    1
4     1     23    1
5     2     3     1
6     2     24    1
7     2     25    1
8     3     4     1
9     3     26    1
10    3     27    1
11    4     5     1
12    4     6     1
13    4     9     1
14    6     7     1
15    6     28    1
16    6     29    1
17    7     8     1
18    7     30    1
19    7     31    1
20    8     32    1
21    8     33    1
22    8     34    1
23    9     10    1
24    9     35    1
25    9     36    1
26    10    11    1
27    10    37    1
28    10    38    1
29    11    16    ar
30    11    12    ar
31    12    13    ar
32    12    39    1
33    13    14    ar
34    13    40    1
35    14    15    ar
36    14    41    1
37    15    20    1
38    15    16    ar
39    16    17    1
40    17    18    1
41    17    42    1
42    17    43    1
43    18    19    2
44    18    20    am
45    20    44    1
@<TRIPOS>SUBSTRUCTURE
1   ZINC000000002041 1     RESIDUE    1   A     ZIN   1
