@<TRIPOS>MOLECULE
ZINC000008214402
63    63    1     0     0
SMALL
USER_CHARGES
@<TRIPOS>ATOM
1      C1      5.1037   -6.4336   -1.9725 C.3      1 ZINC000008214402   -0.1600
2      C2      3.9648   -6.0851   -1.0121 C.3      1 ZINC000008214402   -0.1300
3      C3      2.6368   -6.5670   -1.5996 C.3      1 ZINC000008214402   -0.1200
4      C4      1.4979   -6.2185   -0.6393 C.3      1 ZINC000008214402   -0.1200
5      C5      0.1699   -6.7004   -1.2268 C.3      1 ZINC000008214402   -0.1200
6      C6     -0.9690   -6.3519   -0.2664 C.3      1 ZINC000008214402   -0.1500
7      C7     -2.2970   -6.8338   -0.8539 C.3      1 ZINC000008214402   -0.0100
8      N8     -3.3905   -6.4991    0.0681 N.4      1 ZINC000008214402   -0.3900
9      H9     -3.1910   -6.8828    0.9798 H        1 ZINC000008214402    0.4200
10     C10    -3.5170   -5.0390    0.1683 C.3      1 ZINC000008214402   -0.0200
11     C11    -4.5484   -4.6890    1.2427 C.3      1 ZINC000008214402   -0.1900
12     C12    -4.6479   -7.0661   -0.4373 C.3      1 ZINC000008214402   -0.0200
13     C13    -4.5677   -8.5936   -0.4057 C.3      1 ZINC000008214402   -0.1500
14     C14    -5.9219   -9.1838   -0.8042 C.3      1 ZINC000008214402   -0.1500
15     C15    -5.8417  -10.7113   -0.7726 C.3      1 ZINC000008214402    0.1500
16     H16    -5.0192  -11.0451   -1.4051 H        1 ZINC000008214402    0.1100
17     O17    -5.6187  -11.1490    0.5693 O.3      1 ZINC000008214402   -0.5500
18     C18    -7.1352  -11.2929   -1.2822 C.ar     1 ZINC000008214402   -0.1400
19     C19    -8.2363  -11.3620   -0.4485 C.ar     1 ZINC000008214402   -0.0900
20     C20    -9.4233  -11.8944   -0.9123 C.ar     1 ZINC000008214402   -0.1300
21     C21    -9.5102  -12.3607   -2.2179 C.ar     1 ZINC000008214402    0.1500
22     N22   -10.7092  -12.8993   -2.6904 N.am     1 ZINC000008214402   -1.0600
23     S23   -11.2947  -12.4443   -4.1711 S.o2     1 ZINC000008214402    2.6100
24     C24   -11.5745  -10.6586   -4.0180 C.3      1 ZINC000008214402   -0.6700
25     O25   -10.2233  -12.7062   -5.0671 O.2      1 ZINC000008214402   -0.9500
26     O26   -12.5313  -13.1348   -4.2862 O.2      1 ZINC000008214402   -0.9400
27     C27    -8.4022  -12.2898   -3.0527 C.ar     1 ZINC000008214402   -0.1500
28     C28    -7.2200  -11.7511   -2.5842 C.ar     1 ZINC000008214402   -0.0800
29     H29     6.0498   -6.0903   -1.5539 H        1 ZINC000008214402    0.0600
30     H30     5.1405   -7.5135   -2.1158 H        1 ZINC000008214402    0.0500
31     H31     4.9323   -5.9454   -2.9318 H        1 ZINC000008214402    0.0500
32     H32     4.1362   -6.5733   -0.0528 H        1 ZINC000008214402    0.0600
33     H33     3.9281   -5.0051   -0.8688 H        1 ZINC000008214402    0.0600
34     H34     2.4654   -6.0788   -2.5590 H        1 ZINC000008214402    0.0600
35     H35     2.6736   -7.6469   -1.7429 H        1 ZINC000008214402    0.0600
36     H36     1.6693   -6.7067    0.3201 H        1 ZINC000008214402    0.0700
37     H37     1.4612   -5.1385   -0.4960 H        1 ZINC000008214402    0.0700
38     H38    -0.0015   -6.2122   -2.1861 H        1 ZINC000008214402    0.0700
39     H39     0.2067   -7.7803   -1.3701 H        1 ZINC000008214402    0.0700
40     H40    -0.7976   -6.8401    0.6929 H        1 ZINC000008214402    0.0900
41     H41    -1.0057   -5.2719   -0.1231 H        1 ZINC000008214402    0.0900
42     H42    -2.4684   -6.3456   -1.8133 H        1 ZINC000008214402    0.1300
43     H43    -2.2602   -7.9137   -0.9973 H        1 ZINC000008214402    0.1300
44     H44    -2.5523   -4.6083    0.4366 H        1 ZINC000008214402    0.1300
45     H45    -3.8407   -4.6357   -0.7912 H        1 ZINC000008214402    0.1300
46     H46    -5.4978   -5.1689    1.0051 H        1 ZINC000008214402    0.0800
47     H47    -4.1964   -5.0405    2.2126 H        1 ZINC000008214402    0.0800
48     H48    -4.6859   -3.6082    1.2760 H        1 ZINC000008214402    0.1100
49     H49    -5.4748   -6.7326    0.1898 H        1 ZINC000008214402    0.1300
50     H50    -4.8112   -6.7319   -1.4619 H        1 ZINC000008214402    0.1300
51     H51    -3.8038   -8.9319   -1.1059 H        1 ZINC000008214402    0.0900
52     H52    -4.3097   -8.9232    0.6007 H        1 ZINC000008214402    0.0900
53     H53    -6.6858   -8.8455   -0.1040 H        1 ZINC000008214402    0.0800
54     H54    -6.1800   -8.8542   -1.8106 H        1 ZINC000008214402    0.0900
55     H55    -6.3132  -10.8869    1.1891 H        1 ZINC000008214402    0.3800
56     H56    -8.1680  -10.9995    0.5665 H        1 ZINC000008214402    0.1200
57     H57   -10.2827  -11.9483   -0.2606 H        1 ZINC000008214402    0.1300
58     H58   -11.1989  -13.5399   -2.1512 H        1 ZINC000008214402    0.4300
59     H59   -10.6202  -10.1526   -3.8714 H        1 ZINC000008214402    0.1300
60     H60   -12.0477  -10.2858   -4.9264 H        1 ZINC000008214402    0.1400
61     H61   -12.2236  -10.4644   -3.1642 H        1 ZINC000008214402    0.1300
62     H62    -8.4663  -12.6519   -4.0682 H        1 ZINC000008214402    0.1600
63     H63    -6.3581  -11.6957   -3.2327 H        1 ZINC000008214402    0.1300
@<TRIPOS>BOND
1     1     2     1
2     1     29    1
3     1     30    1
4     1     31    1
5     2     3     1
6     2     32    1
7     2     33    1
8     3     4     1
9     3     34    1
10    3     35    1
11    4     5     1
12    4     36    1
13    4     37    1
14    5     6     1
15    5     38    1
16    5     39    1
17    6     7     1
18    6     40    1
19    6     41    1
20    7     8     1
21    7     42    1
22    7     43    1
23    8     9     1
24    8     10    1
25    8     12    1
26    10    11    1
27    10    44    1
28    10    45    1
29    11    46    1
30    11    47    1
31    11    48    1
32    12    13    1
33    12    49    1
34    12    50    1
35    13    14    1
36    13    51    1
37    13    52    1
38    14    15    1
39    14    53    1
40    14    54    1
41    15    16    1
42    15    17    1
43    15    18    1
44    17    55    1
45    18    28    ar
46    18    19    ar
47    19    20    ar
48    19    56    1
49    20    21    ar
50    20    57    1
51    21    22    1
52    21    27    ar
53    22    23    am
54    22    58    1
55    23    24    1
56    23    25    2
57    23    26    2
58    24    59    1
59    24    60    1
60    24    61    1
61    27    28    ar
62    27    62    1
63    28    63    1
@<TRIPOS>SUBSTRUCTURE
1   ZINC000008214402 1     RESIDUE    1   A     ZIN   1
