@<TRIPOS>MOLECULE
ZINC000034220093
30   32    0    0    0
SMALL
USER_CHARGES
NO_NAME
@<TRIPOS>ATOM
1 C1       -0.0178     1.4608     0.0101 C.3    1 <0>       0.0900
2 N2        0.0021    -0.0041     0.0020 N.pl3  1 <0>      -0.7400
3 C3       -1.1968    -0.7182     0.0096 C.ar   1 <0>       0.2100
4 C4       -2.4090    -0.0384     0.0191 C.ar   1 <0>      -0.1800
5 C5       -3.5950    -0.7405     0.0271 C.ar   1 <0>      -0.0200
6 C6       -3.5790    -2.1365     0.0252 C.ar   1 <0>      -0.0800
7 C7       -4.8492    -2.8911     0.0333 C.2    1 <0>       0.1800
8 N8       -6.0237    -2.3568     0.0367 N.2    1 <0>      -0.4600
9 C9       -7.0894    -3.1777     0.0441 C.ar   1 <0>       0.0800
10 C10      -8.4616    -2.8441     0.0495 C.ar   1 <0>      -0.0500
11 C11      -9.4118    -3.8183     0.0578 C.ar   1 <0>      -0.1300
12 C12      -9.0519    -5.1628     0.0606 C.ar   1 <0>       0.1300
13 O13     -10.0125    -6.1248     0.0685 O.3    1 <0>      -0.4900
14 C14      -7.7168    -5.5181     0.0550 C.ar   1 <0>      -0.1000
15 C15      -6.7333    -4.5315     0.0470 C.ar   1 <0>      -0.1600
16 S16      -4.9752    -4.6447     0.0319 S.3    1 <0>       0.0700
17 C17      -2.3598    -2.8185     0.0152 C.ar   1 <0>      -0.0700
18 C18      -1.1764    -2.1111     0.0020 C.ar   1 <0>       0.0200
19 F19       0.0035    -2.7690    -0.0082 F      1 <0>      -0.1400
20 H20       1.0048     1.8381     0.0023 H      1 <0>       0.0800
21 H21      -0.5450     1.8219    -0.8730 H      1 <0>       0.0600
22 H22      -0.5280     1.8123     0.9069 H      1 <0>       0.0600
23 H23       0.8486    -0.4776    -0.0086 H      1 <0>       0.4100
24 H24      -2.4216     1.0415     0.0206 H      1 <0>       0.1400
25 H25      -4.5362    -0.2110     0.0352 H      1 <0>       0.1400
26 H26      -8.7597    -1.8060     0.0474 H      1 <0>       0.1400
27 H27     -10.4567    -3.5451     0.0626 H      1 <0>       0.1400
28 H28     -10.2946    -6.4062    -0.8126 H      1 <0>       0.4000
29 H29      -7.4356    -6.5609     0.0572 H      1 <0>       0.1400
30 H30      -2.3443    -3.8984     0.0137 H      1 <0>       0.1400
@<TRIPOS>BOND
1    1    2 1
2    1   20 1
3    1   21 1
4    1   22 1
5    2    3 1
6    2   23 1
7    3   18 ar
8    3    4 ar
9    4    5 ar
10    4   24 1
11    5    6 ar
12    5   25 1
13    6    7 1
14    6   17 ar
15    7   16 1
16    7    8 2
17    8    9 1
18    9   15 ar
19    9   10 ar
20   10   11 ar
21   10   26 1
22   11   12 ar
23   11   27 1
24   12   13 1
25   12   14 ar
26   13   28 1
27   14   15 ar
28   14   29 1
29   15   16 1
30   17   18 ar
31   17   30 1
32   18   19 1
