@<TRIPOS>MOLECULE
ZINC000011677837
59    63    1     0     0
SMALL
USER_CHARGES
@<TRIPOS>ATOM
1      C1      0.4426    0.8352    0.6177 C.3      1 ZINC000011677837    0.0200
2      O2     -0.1337    0.3292   -0.5881 O.3      1 ZINC000011677837   -0.3100
3      C3     -1.3009   -0.3575   -0.4734 C.ar     1 ZINC000011677837    0.1500
4      C4     -1.8815   -0.5348    0.7746 C.ar     1 ZINC000011677837   -0.2000
5      C5     -3.0671   -1.2317    0.8919 C.ar     1 ZINC000011677837   -0.0500
6      C6     -3.6793   -1.7557   -0.2397 C.ar     1 ZINC000011677837    0.0600
7      N7     -4.8821   -2.4623   -0.1216 N.pl3    1 ZINC000011677837   -0.1700
8      N8     -5.8872   -2.1062    0.6072 N.2      1 ZINC000011677837   -0.2300
9      C9     -6.8724   -2.9901    0.5082 C.2      1 ZINC000011677837   -0.0100
10     C10    -8.1803   -2.9254    1.1914 C.2      1 ZINC000011677837    0.6100
11     N11    -8.4626   -1.8926    2.0100 N.am     1 ZINC000011677837   -0.8400
12     O12    -9.0022   -3.8038    1.0154 O.2      1 ZINC000011677837   -0.5300
13     C13    -6.4427   -3.9888   -0.3606 C.2      1 ZINC000011677837   -0.0900
14     C14    -5.1730   -3.6201   -0.7577 C.2      1 ZINC000011677837   -0.0500
15     C15    -4.4164   -4.4484   -1.7082 C.2      1 ZINC000011677837    0.6000
16     O16    -3.2439   -4.2320   -1.9497 O.2      1 ZINC000011677837   -0.5000
17     N17    -5.0872   -5.4632   -2.3010 N.am     1 ZINC000011677837   -0.5600
18     C18    -4.3595   -6.4280   -3.0076 C.ar     1 ZINC000011677837    0.1400
19     C19    -3.5098   -7.2920   -2.3289 C.ar     1 ZINC000011677837   -0.1000
20     C20    -2.7923   -8.2432   -3.0258 C.ar     1 ZINC000011677837   -0.0900
21     C21    -2.9200   -8.3364   -4.4055 C.ar     1 ZINC000011677837    0.1400
22     N22    -2.1918   -9.3018   -5.1126 N.am     1 ZINC000011677837   -0.5600
23     C23    -1.1301   -8.8426   -5.9994 C.3      1 ZINC000011677837    0.1100
24     C24    -0.1599   -9.9835   -6.3084 C.3      1 ZINC000011677837   -0.1400
25     C25    -0.9669  -11.2020   -6.7729 C.3      1 ZINC000011677837   -0.1300
26     C26    -1.7846  -11.7211   -5.5876 C.3      1 ZINC000011677837   -0.1300
27     C27    -2.5099  -10.5836   -4.9282 C.2      1 ZINC000011677837    0.5200
28     O28    -3.4400  -10.8442   -4.1945 O.2      1 ZINC000011677837   -0.5400
29     C29    -3.7699   -7.4729   -5.0842 C.ar     1 ZINC000011677837   -0.1100
30     C30    -4.4915   -6.5250   -4.3868 C.ar     1 ZINC000011677837   -0.1000
31     C31    -6.5375   -5.5915   -2.2322 C.3      1 ZINC000011677837    0.1100
32     C32    -7.0958   -5.2492   -0.8514 C.3      1 ZINC000011677837   -0.0700
33     C33    -3.0975   -1.5778   -1.4886 C.ar     1 ZINC000011677837   -0.0300
34     C34    -1.9146   -0.8761   -1.6049 C.ar     1 ZINC000011677837   -0.1400
35     H35     1.3685    1.3612    0.3851 H        1 ZINC000011677837    0.1100
36     H36    -0.2563    1.5230    1.0937 H        1 ZINC000011677837    0.0600
37     H37     0.6551    0.0073    1.2941 H        1 ZINC000011677837    0.0600
38     H38    -1.4053   -0.1277    1.6543 H        1 ZINC000011677837    0.1400
39     H39    -3.5186   -1.3699    1.8632 H        1 ZINC000011677837    0.1400
40     H40    -7.8069   -1.1917    2.1504 H        1 ZINC000011677837    0.4100
41     H41    -9.3216   -1.8501    2.4587 H        1 ZINC000011677837    0.4100
42     H42    -3.4103   -7.2193   -1.2559 H        1 ZINC000011677837    0.1300
43     H43    -2.1313   -8.9148   -2.4981 H        1 ZINC000011677837    0.1300
44     H44    -1.5687   -8.4808   -6.9293 H        1 ZINC000011677837    0.0700
45     H45    -0.5873   -8.0280   -5.5198 H        1 ZINC000011677837    0.0800
46     H46     0.5260   -9.6766   -7.0979 H        1 ZINC000011677837    0.0900
47     H47     0.4029  -10.2383   -5.4104 H        1 ZINC000011677837    0.0700
48     H48    -1.6371  -10.9115   -7.5819 H        1 ZINC000011677837    0.0700
49     H49    -0.2882  -11.9811   -7.1198 H        1 ZINC000011677837    0.0800
50     H50    -2.5063  -12.4578   -5.9405 H        1 ZINC000011677837    0.1000
51     H51    -1.1166  -12.1884   -4.8639 H        1 ZINC000011677837    0.1000
52     H52    -3.8693   -7.5457   -6.1571 H        1 ZINC000011677837    0.1300
53     H53    -5.1527   -5.8536   -4.9146 H        1 ZINC000011677837    0.1300
54     H54    -6.9856   -4.9215   -2.9660 H        1 ZINC000011677837    0.0800
55     H55    -6.8125   -6.6167   -2.4802 H        1 ZINC000011677837    0.1000
56     H56    -6.8780   -6.0613   -0.1577 H        1 ZINC000011677837    0.0900
57     H57    -8.1739   -5.1033   -0.9192 H        1 ZINC000011677837    0.1200
58     H58    -3.5728   -1.9849   -2.3688 H        1 ZINC000011677837    0.1400
59     H59    -1.4622   -0.7378   -2.5758 H        1 ZINC000011677837    0.1500
@<TRIPOS>BOND
1     1     2     1
2     1     35    1
3     1     36    1
4     1     37    1
5     2     3     1
6     3     34    ar
7     3     4     ar
8     4     5     ar
9     4     38    1
10    5     6     ar
11    5     39    1
12    6     7     1
13    6     33    ar
14    7     14    1
15    7     8     1
16    8     9     2
17    9     10    1
18    9     13    1
19    10    11    am
20    10    12    2
21    11    40    1
22    11    41    1
23    13    32    1
24    13    14    2
25    14    15    1
26    15    16    2
27    15    17    am
28    17    18    1
29    17    31    1
30    18    30    ar
31    18    19    ar
32    19    20    ar
33    19    42    1
34    20    21    ar
35    20    43    1
36    21    22    1
37    21    29    ar
38    22    27    am
39    22    23    1
40    23    24    1
41    23    44    1
42    23    45    1
43    24    25    1
44    24    46    1
45    24    47    1
46    25    26    1
47    25    48    1
48    25    49    1
49    26    27    1
50    26    50    1
51    26    51    1
52    27    28    2
53    29    30    ar
54    29    52    1
55    30    53    1
56    31    32    1
57    31    54    1
58    31    55    1
59    32    56    1
60    32    57    1
61    33    34    ar
62    33    58    1
63    34    59    1
@<TRIPOS>SUBSTRUCTURE
1   ZINC000011677837 1     RESIDUE    1   A     ZIN   1
