@<TRIPOS>MOLECULE
ZINC000003782818
51    55    1     0     0
SMALL
USER_CHARGES
@<TRIPOS>ATOM
1      C1     -0.3239   -2.7044    0.8527 C.3      1 ZINC000003782818   -0.1500
2      C2      0.2162   -3.6291   -0.2401 C.3      1 ZINC000003782818    0.0800
3      O3      1.2102   -2.9386   -1.0000 O.3      1 ZINC000003782818   -0.2900
4      C4      1.7923   -3.6204   -2.0130 C.2      1 ZINC000003782818    0.4600
5      N5      1.5107   -4.8522   -2.3486 N.2      1 ZINC000003782818   -0.5500
6      C6      2.2807   -5.2214   -3.4070 C.ar     1 ZINC000003782818    0.0500
7      C7      2.3887   -6.3983   -4.1498 C.ar     1 ZINC000003782818   -0.1000
8      C8      3.2852   -6.4779   -5.1962 C.ar     1 ZINC000003782818   -0.1300
9      C9      4.0857   -5.4007   -5.5233 C.ar     1 ZINC000003782818   -0.1000
10     C10     3.9973   -4.2114   -4.7953 C.ar     1 ZINC000003782818   -0.1100
11     C11     4.8502   -3.0639   -5.1432 C.2      1 ZINC000003782818    0.5200
12     O12     5.9865   -3.2495   -5.5571 O.co2    1 ZINC000003782818   -0.6900
13     O13     4.4232   -1.9242   -5.0185 O.co2    1 ZINC000003782818   -0.6500
14     C14     3.0892   -4.1199   -3.7310 C.ar     1 ZINC000003782818    0.0800
15     N15     2.7569   -3.1228   -2.8407 N.pl3    1 ZINC000003782818   -0.4500
16     C16     3.3347   -1.7776   -2.7892 C.3      1 ZINC000003782818    0.1300
17     C17     2.4244   -0.8121   -3.5035 C.ar     1 ZINC000003782818   -0.0400
18     C18     1.6178   -1.2599   -4.5343 C.ar     1 ZINC000003782818   -0.1000
19     C19     0.7822   -0.3804   -5.1921 C.ar     1 ZINC000003782818   -0.1000
20     C20     0.7515    0.9615   -4.8155 C.ar     1 ZINC000003782818   -0.0700
21     C21    -0.1445    1.9111   -5.5178 C.ar     1 ZINC000003782818   -0.0200
22     C22    -0.1527    1.9672   -6.9087 C.ar     1 ZINC000003782818   -0.1100
23     C23    -0.9890    2.8527   -7.5587 C.ar     1 ZINC000003782818   -0.1400
24     C24    -1.8221    3.6881   -6.8349 C.ar     1 ZINC000003782818   -0.1300
25     C25    -1.8261    3.6450   -5.4548 C.ar     1 ZINC000003782818   -0.1100
26     C26    -0.9933    2.7546   -4.7841 C.ar     1 ZINC000003782818    0.0500
27     C27    -0.9947    2.7046   -3.3016 C.2      1 ZINC000003782818    0.0800
28     N28    -0.2526    1.9137   -2.5335 N.2      1 ZINC000003782818   -0.3400
29     N29    -0.5480    2.1754   -1.3061 N.pl3    1 ZINC000003782818   -0.1900
30     N30    -1.4451    3.0982   -1.2758 N.2      1 ZINC000003782818   -0.2000
31     N31    -1.7341    3.4461   -2.4832 N.2      1 ZINC000003782818   -0.3800
32     C32     1.5661    1.4068   -3.7756 C.ar     1 ZINC000003782818    0.0100
33     C33     2.3943    0.5172   -3.1220 C.ar     1 ZINC000003782818   -0.1300
34     H34     0.4919   -2.4034    1.5099 H        1 ZINC000003782818    0.0600
35     H35    -0.7664   -1.8200    0.3943 H        1 ZINC000003782818    0.0700
36     H36    -1.0821   -3.2310    1.4323 H        1 ZINC000003782818    0.0800
37     H37     0.6587   -4.5135    0.2183 H        1 ZINC000003782818    0.0600
38     H38    -0.5996   -3.9301   -0.8973 H        1 ZINC000003782818    0.0700
39     H39     1.7697   -7.2487   -3.9049 H        1 ZINC000003782818    0.1200
40     H40     3.3620   -7.3925   -5.7653 H        1 ZINC000003782818    0.1200
41     H41     4.7827   -5.4782   -6.3446 H        1 ZINC000003782818    0.1200
42     H42     3.4469   -1.4698   -1.7496 H        1 ZINC000003782818    0.0700
43     H43     4.3110   -1.7827   -3.2740 H        1 ZINC000003782818    0.1600
44     H44     1.6425   -2.2997   -4.8252 H        1 ZINC000003782818    0.1000
45     H45     0.1534   -0.7309   -5.9972 H        1 ZINC000003782818    0.1000
46     H46     0.4952    1.3183   -7.4792 H        1 ZINC000003782818    0.1200
47     H47    -0.9929    2.8941   -8.6379 H        1 ZINC000003782818    0.1100
48     H48    -2.4725    4.3776   -7.3525 H        1 ZINC000003782818    0.1100
49     H49    -2.4783    4.2997   -4.8960 H        1 ZINC000003782818    0.1200
50     H50     1.5467    2.4454   -3.4799 H        1 ZINC000003782818    0.1100
51     H51     3.0256    0.8610   -2.3160 H        1 ZINC000003782818    0.1100
@<TRIPOS>BOND
1     1     2     1
2     1     34    1
3     1     35    1
4     1     36    1
5     2     3     1
6     2     37    1
7     2     38    1
8     3     4     1
9     4     15    1
10    4     5     2
11    5     6     1
12    6     14    ar
13    6     7     ar
14    7     8     ar
15    7     39    1
16    8     9     ar
17    8     40    1
18    9     10    ar
19    9     41    1
20    10    11    1
21    10    14    ar
22    11    12    ar
23    11    13    ar
24    14    15    1
25    15    16    1
26    16    17    1
27    16    42    1
28    16    43    1
29    17    33    ar
30    17    18    ar
31    18    19    ar
32    18    44    1
33    19    20    ar
34    19    45    1
35    20    21    1
36    20    32    ar
37    21    26    ar
38    21    22    ar
39    22    23    ar
40    22    46    1
41    23    24    ar
42    23    47    1
43    24    25    ar
44    24    48    1
45    25    26    ar
46    25    49    1
47    26    27    1
48    27    31    1
49    27    28    2
50    28    29    1
51    29    30    1
52    30    31    2
53    32    33    ar
54    32    50    1
55    33    51    1
@<TRIPOS>SUBSTRUCTURE
1   ZINC000003782818 1     RESIDUE    1   A     ZIN   1
