@<TRIPOS>MOLECULE
ZINC000001530981
47    48    1     0     0
SMALL
USER_CHARGES
@<TRIPOS>ATOM
1      C1     -0.0178    1.4648    0.0101 C.3      1 ZINC000001530981    0.0200
2      N2      0.0021   -0.0041    0.0020 N.3      1 ZINC000001530981   -0.5300
3      C3      0.7062   -0.5275    1.1802 C.3      1 ZINC000001530981    0.0800
4      C4      2.1628   -0.1488    1.1043 C.2      1 ZINC000001530981   -0.1100
5      C5      2.7314    0.5094    2.1089 C.2      1 ZINC000001530981   -0.0600
6      C6      4.1156    0.8692    2.0367 C.1      1 ZINC000001530981   -0.1600
7      C7      5.2504    1.1643    1.9776 C.1      1 ZINC000001530981   -0.1500
8      C8      6.6732    1.5342    1.9034 C.3      1 ZINC000001530981    0.0400
9      C9      7.0739    2.2781    3.1789 C.3      1 ZINC000001530981   -0.1400
10     C10     7.5223    0.2693    1.7626 C.3      1 ZINC000001530981   -0.1400
11     C11     6.9022    2.4398    0.6916 C.3      1 ZINC000001530981   -0.1400
12     C12    -1.3597   -0.5486   -0.0825 C.3      1 ZINC000001530981    0.0900
13     C13    -1.9618   -0.1908   -1.4168 C.ar     1 ZINC000001530981   -0.0600
14     C14    -1.6371   -0.9384   -2.5613 C.ar     1 ZINC000001530981   -0.0300
15     C15    -0.7524   -2.0284   -2.4944 C.ar     1 ZINC000001530981   -0.0900
16     C16    -0.4615   -2.7297   -3.6238 C.ar     1 ZINC000001530981   -0.1200
17     C17    -1.0277   -2.3836   -4.8495 C.ar     1 ZINC000001530981   -0.1100
18     C18    -1.8881   -1.3342   -4.9526 C.ar     1 ZINC000001530981   -0.1100
19     C19    -2.2134   -0.5867   -3.8077 C.ar     1 ZINC000001530981   -0.0500
20     C20    -3.0979    0.5029   -3.8746 C.ar     1 ZINC000001530981   -0.1100
21     C21    -3.3900    1.2037   -2.7447 C.ar     1 ZINC000001530981   -0.1200
22     C22    -2.8275    0.8548   -1.5186 C.ar     1 ZINC000001530981   -0.1100
23     H23     1.0047    1.8421    0.0024 H        1 ZINC000001530981    0.0700
24     H24    -0.5450    1.8259   -0.8730 H        1 ZINC000001530981    0.0700
25     H25    -0.5280    1.8163    0.9069 H        1 ZINC000001530981    0.0300
26     H26     0.2673   -0.1040    2.0837 H        1 ZINC000001530981    0.0400
27     H27     0.6139   -1.6133    1.2060 H        1 ZINC000001530981    0.0900
28     H28     2.7446   -0.4123    0.2334 H        1 ZINC000001530981    0.1200
29     H29     2.1496    0.7729    2.9798 H        1 ZINC000001530981    0.1300
30     H30     6.9107    1.6330    4.0422 H        1 ZINC000001530981    0.0600
31     H31     8.1275    2.5520    3.1240 H        1 ZINC000001530981    0.0700
32     H32     6.4689    3.1792    3.2793 H        1 ZINC000001530981    0.0600
33     H33     7.2369   -0.2606    0.8538 H        1 ZINC000001530981    0.0600
34     H34     8.5759    0.5432    1.7076 H        1 ZINC000001530981    0.0700
35     H35     7.3592   -0.3758    2.6259 H        1 ZINC000001530981    0.0600
36     H36     6.2972    3.3409    0.7919 H        1 ZINC000001530981    0.0600
37     H37     7.9558    2.7137    0.6367 H        1 ZINC000001530981    0.0700
38     H38     6.6167    1.9098   -0.2171 H        1 ZINC000001530981    0.0600
39     H39    -1.3244   -1.6331    0.0212 H        1 ZINC000001530981    0.0900
40     H40    -1.9698   -0.1268    0.7163 H        1 ZINC000001530981    0.0500
41     H41    -0.3055   -2.3078   -1.5517 H        1 ZINC000001530981    0.1300
42     H42     0.2187   -3.5669   -3.5696 H        1 ZINC000001530981    0.1200
43     H43    -0.7797   -2.9566   -5.7307 H        1 ZINC000001530981    0.1200
44     H44    -2.3186   -1.0772   -5.9091 H        1 ZINC000001530981    0.1300
45     H45    -3.5435    0.7832   -4.8176 H        1 ZINC000001530981    0.1300
46     H46    -4.0699    2.0410   -2.7989 H        1 ZINC000001530981    0.1200
47     H47    -3.0761    1.4272   -0.6371 H        1 ZINC000001530981    0.1200
@<TRIPOS>BOND
1     1     2     1
2     1     23    1
3     1     24    1
4     1     25    1
5     2     3     1
6     2     12    1
7     3     4     1
8     3     26    1
9     3     27    1
10    4     5     2
11    4     28    1
12    5     6     1
13    5     29    1
14    6     7     3
15    7     8     1
16    8     9     1
17    8     10    1
18    8     11    1
19    9     30    1
20    9     31    1
21    9     32    1
22    10    33    1
23    10    34    1
24    10    35    1
25    11    36    1
26    11    37    1
27    11    38    1
28    12    13    1
29    12    39    1
30    12    40    1
31    13    22    ar
32    13    14    ar
33    14    19    ar
34    14    15    ar
35    15    16    ar
36    15    41    1
37    16    17    ar
38    16    42    1
39    17    18    ar
40    17    43    1
41    18    19    ar
42    18    44    1
43    19    20    ar
44    20    21    ar
45    20    45    1
46    21    22    ar
47    21    46    1
48    22    47    1
@<TRIPOS>SUBSTRUCTURE
1   ZINC000001530981 1     RESIDUE    1   A     ZIN   1
