@<TRIPOS>MOLECULE
ZINC000003812867
57    58    1     0     0
SMALL
USER_CHARGES
@<TRIPOS>ATOM
1      C1      0.2740    1.6981    0.0431 C.3      1 ZINC000003812867   -0.1400
2      C2      0.1568    0.1747   -0.0370 C.3      1 ZINC000003812867   -0.1200
3      C3     -1.3124   -0.2153   -0.2111 C.3      1 ZINC000003812867   -0.1000
4      C4     -1.4213   -1.7326   -0.3749 C.3      1 ZINC000003812867    0.1000
5      H5     -0.9289   -2.2249    0.4637 H        1 ZINC000003812867    0.0900
6      N6     -0.7732   -2.1375   -1.6295 N.3      1 ZINC000003812867   -0.6400
7      C7      0.5394   -2.7445   -1.3719 C.3      1 ZINC000003812867    0.0400
8      H8      1.0325   -2.2125   -0.5583 H        1 ZINC000003812867    0.1500
9      C9      0.3549   -4.2128   -0.9833 C.3      1 ZINC000003812867   -0.1800
10     C10     1.3862   -2.6567   -2.6155 C.2      1 ZINC000003812867    0.5600
11     O11     0.8731   -2.3868   -3.6807 O.2      1 ZINC000003812867   -0.5500
12     N12     2.7137   -2.8780   -2.5438 N.am     1 ZINC000003812867   -0.5800
13     C13     3.4573   -3.3090   -1.3463 C.3      1 ZINC000003812867    0.0500
14     H14     3.1039   -4.2879   -1.0224 H        1 ZINC000003812867    0.0700
15     C15     3.2718   -2.3046   -0.2382 C.2      1 ZINC000003812867    0.4900
16     O16     3.6535   -2.5643    0.8902 O.co2    1 ZINC000003812867   -0.6900
17     O17     2.7401   -1.2322   -0.4702 O.co2    1 ZINC000003812867   -0.6600
18     C18     4.9485   -3.3925   -1.7412 C.3      1 ZINC000003812867   -0.1100
19     C19     5.0289   -2.4425   -2.9754 C.3      1 ZINC000003812867   -0.0900
20     H20     5.8731   -2.6679   -3.6270 H        1 ZINC000003812867    0.0800
21     C21     5.0807   -1.0155   -2.4256 C.3      1 ZINC000003812867   -0.1400
22     C22     4.7458   -0.0038   -3.5190 C.3      1 ZINC000003812867   -0.1100
23     C23     3.3159   -0.2628   -4.0057 C.3      1 ZINC000003812867   -0.1100
24     C24     3.2632   -1.6570   -4.6303 C.3      1 ZINC000003812867   -0.1300
25     C25     3.6712   -2.7387   -3.6441 C.3      1 ZINC000003812867    0.1500
26     H26     3.7202   -3.6904   -4.1731 H        1 ZINC000003812867    0.0500
27     C27    -2.8742   -2.1312   -0.4086 C.2      1 ZINC000003812867    0.4600
28     O28    -3.3237   -2.6948   -1.3783 O.2      1 ZINC000003812867   -0.5100
29     O29    -3.6690   -1.8602    0.6386 O.3      1 ZINC000003812867   -0.3500
30     C30    -5.0573   -2.2731    0.5368 C.3      1 ZINC000003812867    0.0600
31     C31    -5.8008   -1.8823    1.8156 C.3      1 ZINC000003812867   -0.1500
32     H32     1.3206    1.9760    0.1672 H        1 ZINC000003812867    0.0500
33     H33    -0.1133    2.1411   -0.8745 H        1 ZINC000003812867    0.0400
34     H34    -0.3020    2.0626    0.8937 H        1 ZINC000003812867    0.0400
35     H35     0.7327   -0.1898   -0.8876 H        1 ZINC000003812867    0.1000
36     H36     0.5440   -0.2682    0.8806 H        1 ZINC000003812867    0.0600
37     H37    -1.8777    0.0969    0.6670 H        1 ZINC000003812867    0.0700
38     H38    -1.7162    0.2756   -1.0966 H        1 ZINC000003812867    0.0700
39     H39    -1.3640   -2.7634   -2.1561 H        1 ZINC000003812867    0.3500
40     H40     1.3296   -4.6961   -0.9161 H        1 ZINC000003812867    0.0700
41     H41    -0.1476   -4.2727   -0.0179 H        1 ZINC000003812867    0.0600
42     H42    -0.2487   -4.7156   -1.7389 H        1 ZINC000003812867    0.0600
43     H43     5.5834   -3.0304   -0.9326 H        1 ZINC000003812867    0.0800
44     H44     5.2182   -4.4113   -2.0194 H        1 ZINC000003812867    0.0600
45     H45     4.3610   -0.9174   -1.6129 H        1 ZINC000003812867    0.1200
46     H46     6.0817   -0.8138   -2.0442 H        1 ZINC000003812867    0.0500
47     H47     4.8178    1.0067   -3.1167 H        1 ZINC000003812867    0.0500
48     H48     5.4416   -0.1195   -4.3500 H        1 ZINC000003812867    0.0500
49     H49     2.6265   -0.2120   -3.1629 H        1 ZINC000003812867    0.0800
50     H50     3.0410    0.4838   -4.7508 H        1 ZINC000003812867    0.0500
51     H51     2.2485   -1.8557   -4.9751 H        1 ZINC000003812867    0.0900
52     H52     3.9422   -1.6925   -5.4823 H        1 ZINC000003812867    0.0500
53     H53    -5.5210   -1.7807   -0.3180 H        1 ZINC000003812867    0.0700
54     H54    -5.1062   -3.3539    0.4040 H        1 ZINC000003812867    0.0700
55     H55    -5.3371   -2.3747    2.6704 H        1 ZINC000003812867    0.0700
56     H56    -5.7519   -0.8015    1.9484 H        1 ZINC000003812867    0.0700
57     H57    -6.8430   -2.1922    1.7391 H        1 ZINC000003812867    0.0800
@<TRIPOS>BOND
1     1     2     1
2     1     32    1
3     1     33    1
4     1     34    1
5     2     3     1
6     2     35    1
7     2     36    1
8     3     4     1
9     3     37    1
10    3     38    1
11    4     5     1
12    4     6     1
13    4     27    1
14    6     7     1
15    6     39    1
16    7     8     1
17    7     9     1
18    7     10    1
19    9     40    1
20    9     41    1
21    9     42    1
22    10    11    2
23    10    12    am
24    12    25    1
25    12    13    1
26    13    14    1
27    13    15    1
28    13    18    1
29    15    16    ar
30    15    17    ar
31    18    19    1
32    18    43    1
33    18    44    1
34    19    20    1
35    19    25    1
36    19    21    1
37    21    22    1
38    21    45    1
39    21    46    1
40    22    23    1
41    22    47    1
42    22    48    1
43    23    24    1
44    23    49    1
45    23    50    1
46    24    25    1
47    24    51    1
48    24    52    1
49    25    26    1
50    27    28    2
51    27    29    1
52    29    30    1
53    30    31    1
54    30    53    1
55    30    54    1
56    31    55    1
57    31    56    1
58    31    57    1
@<TRIPOS>SUBSTRUCTURE
1   ZINC000003812867 1     RESIDUE    1   A     ZIN   1
