@<TRIPOS>MOLECULE
ZINC000100071256
26   26    0    0    0
SMALL
USER_CHARGES
NO_NAME
@<TRIPOS>ATOM
1 N1       -0.0116     1.0048     0.0076 N.4    1 <0>      -0.6400
2 H2        0.0021    -0.0041     0.0020 H      1 <0>       0.4300
3 H3        0.9350     1.3541     0.0004 H      1 <0>       0.4300
4 H4       -0.4996     1.3391    -0.8099 H      1 <0>       0.4300
5 C5       -0.6992     1.4786     1.2162 C.3    1 <0>      -0.0100
6 C6       -0.7199     3.0084     1.2246 C.3    1 <0>      -0.1100
7 H7        0.2979     3.3861     1.1273 H      1 <0>       0.0800
8 C8       -1.5654     3.5134     0.0537 C.3    1 <0>      -0.1300
9 C9       -1.5862     5.0433     0.0621 C.3    1 <0>      -0.0900
10 C10      -2.1901     5.5379     1.3779 C.3    1 <0>      -0.1700
11 H11      -2.2049     6.6278     1.3839 H      1 <0>       0.0700
12 C12      -3.5974     5.0157     1.5124 C.2    1 <0>       0.5000
13 O13      -4.0645     4.8000     2.6177 O.co2  1 <0>      -0.6900
14 O14      -4.2687     4.8088     0.5159 O.co2  1 <0>      -0.7000
15 C15      -1.3447     5.0329     2.5489 C.3    1 <0>      -0.0900
16 C16      -1.3239     3.5030     2.5404 C.3    1 <0>      -0.1100
17 H17      -1.7218     1.1013     1.2239 H      1 <0>       0.1300
18 H18      -0.1720     1.1175     2.0992 H      1 <0>       0.1300
19 H19      -1.1351     3.1611    -0.8838 H      1 <0>       0.0400
20 H20      -2.5832     3.1357     0.1509 H      1 <0>       0.0900
21 H21      -0.5683     5.4210    -0.0352 H      1 <0>       0.0400
22 H22      -2.1885     5.4031    -0.7721 H      1 <0>       0.0700
23 H23      -0.3268     5.4106     2.4516 H      1 <0>       0.0400
24 H24      -1.7750     5.3852     3.4863 H      1 <0>       0.0700
25 H25      -2.3417     3.1253     2.6377 H      1 <0>       0.0900
26 H26      -0.7216     3.1432     3.3746 H      1 <0>       0.0600
@<TRIPOS>BOND
1    1    2 1
2    1    3 1
3    1    4 1
4    1    5 1
5    5    6 1
6    5   17 1
7    5   18 1
8    6    7 1
9    6   16 1
10    6    8 1
11    8    9 1
12    8   19 1
13    8   20 1
14    9   10 1
15    9   21 1
16    9   22 1
17   10   11 1
18   10   12 1
19   10   15 1
20   12   13 ar
21   12   14 ar
22   15   16 1
23   15   23 1
24   15   24 1
25   16   25 1
26   16   26 1
