@<TRIPOS>MOLECULE
ZINC000000266964
24   24    0    0    0
SMALL
USER_CHARGES
NO_NAME
@<TRIPOS>ATOM
1 N1       -0.0116     1.0048     0.0076 N.4    1 <0>      -0.6100
2 H2        0.0021    -0.0041     0.0020 H      1 <0>       0.4300
3 H3        0.9350     1.3541     0.0004 H      1 <0>       0.4300
4 H4       -0.4996     1.3391    -0.8099 H      1 <0>       0.4100
5 C5       -0.6992     1.4786     1.2162 C.3    1 <0>      -0.0400
6 H6       -0.7140     2.5685     1.2222 H      1 <0>       0.1300
7 C7       -2.1346     0.9490     1.2270 C.3    1 <0>      -0.0800
8 C8       -2.8990     1.5459     0.0736 C.ar   1 <0>      -0.1200
9 C9       -3.5774     2.7393     0.2391 C.ar   1 <0>      -0.0900
10 C10      -4.2789     3.2885    -0.8166 C.ar   1 <0>      -0.1400
11 C11      -4.3019     2.6420    -2.0439 C.ar   1 <0>       0.1100
12 O12      -4.9908     3.1805    -3.0841 O.3    1 <0>      -0.5000
13 C13      -3.6199     1.4449    -2.2075 C.ar   1 <0>      -0.1400
14 C14      -2.9160     0.9023    -1.1500 C.ar   1 <0>      -0.1200
15 C15       0.0297     0.9794     2.4371 C.2    1 <0>       0.4900
16 O16      -0.2657     1.4060     3.5403 O.co2  1 <0>      -0.6300
17 O17       0.9147     0.1488     2.3216 O.co2  1 <0>      -0.6700
18 H18      -2.1220    -0.1367     1.1315 H      1 <0>       0.0900
19 H19      -2.6169     1.2257     2.1646 H      1 <0>       0.1200
20 H20      -3.5592     3.2422     1.1947 H      1 <0>       0.1400
21 H21      -4.8093     4.2203    -0.6867 H      1 <0>       0.1300
22 H22      -4.4683     3.7812    -3.6331 H      1 <0>       0.3900
23 H23      -3.6366     0.9395    -3.1618 H      1 <0>       0.1300
24 H24      -2.3847    -0.0294    -1.2769 H      1 <0>       0.1300
@<TRIPOS>BOND
1    1    2 1
2    1    3 1
3    1    4 1
4    1    5 1
5    5    6 1
6    5    7 1
7    5   15 1
8    7    8 1
9    7   18 1
10    7   19 1
11    8   14 ar
12    8    9 ar
13    9   10 ar
14    9   20 1
15   10   11 ar
16   10   21 1
17   11   12 1
18   11   13 ar
19   12   22 1
20   13   14 ar
21   13   23 1
22   14   24 1
23   15   16 ar
24   15   17 ar
