@<TRIPOS>MOLECULE
ZINC000013129998
35   37    0    0    0
SMALL
USER_CHARGES
NO_NAME
@<TRIPOS>ATOM
1 C1       -3.6647     0.1631    -1.0271 C.3    1 <0>      -0.0600
2 C2       -2.7616    -1.0190    -0.7864 C.2    1 <0>      -0.2700
3 C3       -1.5944    -0.9948    -0.1402 C.2    1 <0>       0.0800
4 N4       -0.9876    -2.1642    -0.0590 N.2    1 <0>      -0.4800
5 C5       -1.5869    -3.1755    -0.6060 C.2    1 <0>       0.3100
6 N6       -1.1008    -4.4760    -0.6193 N.am   1 <0>      -0.6400
7 C7        0.0790    -4.7605    -0.0332 C.2    1 <0>       0.5800
8 O8        0.7656    -3.8628     0.4208 O.2    1 <0>      -0.4700
9 C9        0.5212    -6.1052     0.0547 C.2    1 <0>      -0.2300
10 C10       1.8463    -6.3498     0.1481 C.2    1 <0>       0.2900
11 O11       2.6876    -5.2875     0.1462 O.3    1 <0>      -0.6200
12 C12       2.4350    -7.6908     0.2518 C.ar   1 <0>       0.0200
13 C13       3.7582    -7.8506     0.6759 C.ar   1 <0>      -0.1000
14 C14       4.3005    -9.1149     0.7710 C.ar   1 <0>      -0.0800
15 C15       3.5455   -10.2292     0.4503 C.ar   1 <0>      -0.1400
16 C16       2.2332   -10.0827     0.0281 C.ar   1 <0>      -0.0300
17 C17       1.6844    -8.8283    -0.0703 C.ar   1 <0>      -0.6500
18 S18       0.0167    -8.6030    -0.6091 S.o2   1 <0>       2.6900
19 O19       0.0597    -8.4317    -2.0191 O.2    1 <0>      -0.9600
20 O20      -0.7625    -9.6003     0.0370 O.2    1 <0>      -0.9700
21 N21      -0.4377    -7.1365     0.0474 N.am   1 <0>      -0.9100
22 C22      -1.7843    -6.9303     0.5863 C.3    1 <0>       0.0900
23 S23      -3.0661    -2.6757    -1.3025 S.3    1 <0>       0.0700
24 H24      -4.5486    -0.1608    -1.5766 H      1 <0>       0.0600
25 H25      -3.9674     0.5897    -0.0709 H      1 <0>       0.0700
26 H26      -3.1313     0.9155    -1.6081 H      1 <0>       0.0700
27 H27      -1.1795    -0.0913     0.2816 H      1 <0>       0.1700
28 H28      -1.6104    -5.1798    -1.0504 H      1 <0>       0.4100
29 H29       4.3540    -6.9858     0.9279 H      1 <0>       0.1400
30 H30       5.3226    -9.2363     1.0980 H      1 <0>       0.1300
31 H31       3.9796   -11.2151     0.5286 H      1 <0>       0.1300
32 H32       1.6444   -10.9527    -0.2226 H      1 <0>       0.1300
33 H33      -1.7772    -7.1112     1.6612 H      1 <0>       0.0600
34 H34      -2.1002    -5.9052     0.3925 H      1 <0>       0.0700
35 H35      -2.4775    -7.6210     0.1062 H      1 <0>       0.0700
@<TRIPOS>BOND
1    1    2 1
2    1   24 1
3    1   25 1
4    1   26 1
5    2   23 1
6    2    3 2
7    3    4 1
8    3   27 1
9    4    5 2
10    5    6 1
11    5   23 1
12    6    7 am
13    6   28 1
14    7    8 2
15    7    9 1
16    9   21 1
17    9   10 2
18   10   11 1
19   10   12 1
20   12   17 ar
21   12   13 ar
22   13   14 ar
23   13   29 1
24   14   15 ar
25   14   30 1
26   15   16 ar
27   15   31 1
28   16   17 ar
29   16   32 1
30   17   18 1
31   18   19 2
32   18   20 2
33   18   21 am
34   21   22 1
35   22   33 1
36   22   34 1
37   22   35 1
