@<TRIPOS>MOLECULE
ZINC000019418959
52    55    1     0     0
SMALL
USER_CHARGES
@<TRIPOS>ATOM
1      C1      0.4674    1.3774   -0.2077 C.3      1 ZINC000019418959    0.0200
2      N2      0.3799   -0.0886   -0.1738 N.3      1 ZINC000019418959   -0.5500
3      C3     -1.0205   -0.5334   -0.2024 C.3      1 ZINC000019418959    0.0600
4      C4     -1.0665   -2.0626   -0.2461 C.3      1 ZINC000019418959    0.0600
5      N5     -0.3685   -2.6048    0.9280 N.3      1 ZINC000019418959   -0.5400
6      C6     -0.4561   -4.0708    0.9619 C.3      1 ZINC000019418959    0.0600
7      C7      0.0571   -4.5813    2.3099 C.3      1 ZINC000019418959   -0.1500
8      C8     -0.0341   -6.1082    2.3452 C.3      1 ZINC000019418959    0.1100
9      N9      0.4572   -6.5970    3.6359 N.pl3    1 ZINC000019418959   -0.5600
10     C10    -0.4648   -6.7354    4.6706 C.ar     1 ZINC000019418959    0.1900
11     C11    -1.6249   -5.9691    4.6400 C.ar     1 ZINC000019418959   -0.1600
12     C12    -2.5643   -6.0835    5.6475 C.ar     1 ZINC000019418959   -0.0800
13     C13    -2.3564   -6.9611    6.6941 C.ar     1 ZINC000019418959   -0.1400
14     C14    -1.2054   -7.7264    6.7353 C.ar     1 ZINC000019418959   -0.0600
15     C15    -0.2567   -7.6167    5.7275 C.ar     1 ZINC000019418959   -0.1600
16     S16     1.2031   -8.5971    5.8070 S.3      1 ZINC000019418959    0.0400
17     C17     2.2978   -7.7924    4.6877 C.ar     1 ZINC000019418959   -0.1300
18     C18     3.6579   -8.0636    4.7533 C.ar     1 ZINC000019418959   -0.0600
19     C19     4.5347   -7.4404    3.8843 C.ar     1 ZINC000019418959   -0.0900
20     C20     4.0572   -6.5445    2.9473 C.ar     1 ZINC000019418959   -0.1500
21     C21     5.0136   -5.8653    2.0012 C.3      1 ZINC000019418959    0.5100
22     F22     6.3171   -6.2999    2.2640 F        1 ZINC000019418959   -0.1700
23     F23     4.6720   -6.1859    0.6829 F        1 ZINC000019418959   -0.1700
24     F24     4.9395   -4.4795    2.1783 F        1 ZINC000019418959   -0.1700
25     C25     2.7045   -6.2698    2.8751 C.ar     1 ZINC000019418959   -0.1100
26     C26     1.8132   -6.8967    3.7423 C.ar     1 ZINC000019418959    0.2000
27     C27     1.0318   -2.1601    0.9565 C.3      1 ZINC000019418959    0.0500
28     C28     1.0778   -0.6309    1.0002 C.3      1 ZINC000019418959    0.0600
29     H29     1.5142    1.6779   -0.2538 H        1 ZINC000019418959    0.0700
30     H30    -0.0572    1.7525   -1.0865 H        1 ZINC000019418959    0.0700
31     H31     0.0103    1.7896    0.6918 H        1 ZINC000019418959    0.0300
32     H32    -1.5327   -0.1796    0.6924 H        1 ZINC000019418959    0.0400
33     H33    -1.5124   -0.1293   -1.0872 H        1 ZINC000019418959    0.0800
34     H34    -2.1043   -2.3955   -0.2381 H        1 ZINC000019418959    0.0800
35     H35    -0.5781   -2.4153   -1.1545 H        1 ZINC000019418959    0.0400
36     H36    -1.4940   -4.3760    0.8291 H        1 ZINC000019418959    0.0800
37     H37     0.1513   -4.4897    0.1596 H        1 ZINC000019418959    0.0400
38     H38     1.0950   -4.2762    2.4427 H        1 ZINC000019418959    0.0700
39     H39    -0.5503   -4.1624    3.1121 H        1 ZINC000019418959    0.0800
40     H40    -1.0721   -6.4133    2.2123 H        1 ZINC000019418959    0.0900
41     H41     0.5733   -6.5271    1.5429 H        1 ZINC000019418959    0.0900
42     H42    -1.7926   -5.2806    3.8250 H        1 ZINC000019418959    0.1400
43     H43    -3.4629   -5.4852    5.6167 H        1 ZINC000019418959    0.1300
44     H44    -3.0922   -7.0491    7.4798 H        1 ZINC000019418959    0.1300
45     H45    -1.0439   -8.4119    7.5541 H        1 ZINC000019418959    0.1300
46     H46     4.0324   -8.7633    5.4858 H        1 ZINC000019418959    0.1500
47     H47     5.5920   -7.6537    3.9384 H        1 ZINC000019418959    0.1500
48     H48     2.3373   -5.5679    2.1410 H        1 ZINC000019418959    0.1400
49     H49     1.5237   -2.5641    1.8413 H        1 ZINC000019418959    0.0800
50     H50     1.5441   -2.5139    0.0618 H        1 ZINC000019418959    0.0400
51     H51     2.1157   -0.2979    0.9922 H        1 ZINC000019418959    0.0800
52     H52     0.5894   -0.2782    1.9086 H        1 ZINC000019418959    0.0400
@<TRIPOS>BOND
1     1     2     1
2     1     29    1
3     1     30    1
4     1     31    1
5     2     28    1
6     2     3     1
7     3     4     1
8     3     32    1
9     3     33    1
10    4     5     1
11    4     34    1
12    4     35    1
13    5     6     1
14    5     27    1
15    6     7     1
16    6     36    1
17    6     37    1
18    7     8     1
19    7     38    1
20    7     39    1
21    8     9     1
22    8     40    1
23    8     41    1
24    9     26    1
25    9     10    1
26    10    15    ar
27    10    11    ar
28    11    12    ar
29    11    42    1
30    12    13    ar
31    12    43    1
32    13    14    ar
33    13    44    1
34    14    15    ar
35    14    45    1
36    15    16    1
37    16    17    1
38    17    26    ar
39    17    18    ar
40    18    19    ar
41    18    46    1
42    19    20    ar
43    19    47    1
44    20    21    1
45    20    25    ar
46    21    22    1
47    21    23    1
48    21    24    1
49    25    26    ar
50    25    48    1
51    27    28    1
52    27    49    1
53    27    50    1
54    28    51    1
55    28    52    1
@<TRIPOS>SUBSTRUCTURE
1   ZINC000019418959 1     RESIDUE    1   A     ZIN   1
