@<TRIPOS>MOLECULE
ZINC000003815424
49   52    0    0    0
SMALL
USER_CHARGES
NO_NAME
@<TRIPOS>ATOM
1 C1        0.0646    -1.1975     0.0462 C.1    1 <0>      -0.1800
2 C2        0.0322    -0.0239     0.0534 C.1    1 <0>      -0.2100
3 C3       -0.0085     1.4475     0.0625 C.3    1 <0>       0.2500
4 O4       -0.6789     1.9164     1.2342 O.3    1 <0>      -0.5400
5 C5       -0.7179     1.9728    -1.2107 C.3    1 <0>      -0.1400
6 C6        0.3521     2.7616    -2.0141 C.3    1 <0>      -0.1100
7 C7        1.6689     2.1480    -1.5266 C.3    1 <0>      -0.0800
8 H8        1.8221     1.1669    -1.9760 H      1 <0>       0.0800
9 C9        2.9057     3.0063    -1.6947 C.3    1 <0>      -0.0800
10 H10       2.7744     3.9492    -1.1640 H      1 <0>       0.0900
11 C11       3.2124     3.2810    -3.1667 C.3    1 <0>      -0.1100
12 C12       4.3511     4.2980    -3.2357 C.3    1 <0>      -0.0800
13 C13       5.4926     3.9020    -2.3365 C.ar   1 <0>      -0.0300
14 C14       6.7131     4.5343    -2.5297 C.ar   1 <0>      -0.1600
15 C15       7.8019     4.2234    -1.7332 C.ar   1 <0>       0.1300
16 O16       8.9928     4.8474    -1.9312 O.3    1 <0>      -0.3200
17 C17      10.0713     4.4751    -1.0708 C.3    1 <0>       0.0300
18 C18       7.6717     3.2724    -0.7318 C.ar   1 <0>      -0.2100
19 C19       6.4596     2.6426    -0.5424 C.ar   1 <0>      -0.0800
20 C20       5.3693     2.9507    -1.3445 C.ar   1 <0>      -0.1100
21 C21       4.0776     2.2267    -1.0843 C.3    1 <0>      -0.0400
22 H22       4.1245     1.2634    -1.5923 H      1 <0>       0.0700
23 C23       3.8641     1.9648     0.3998 C.3    1 <0>      -0.1100
24 C24       2.5326     1.2262     0.6346 C.3    1 <0>      -0.1000
25 C25       1.4047     2.0154    -0.0005 C.3    1 <0>      -0.0500
26 C26       1.4008     3.4419     0.5528 C.3    1 <0>      -0.1400
27 H27       0.0937    -2.2470     0.0397 H      1 <0>       0.2200
28 H28      -1.5900     1.6034     1.3178 H      1 <0>       0.3800
29 H29      -1.0900     1.1371    -1.8034 H      1 <0>       0.0700
30 H30      -1.5407     2.6326    -0.9354 H      1 <0>       0.0800
31 H31       0.2254     2.6020    -3.0849 H      1 <0>       0.0700
32 H32       0.3093     3.8239    -1.7737 H      1 <0>       0.0800
33 H33       3.5151     2.3563    -3.6581 H      1 <0>       0.0700
34 H34       2.3274     3.6861    -3.6574 H      1 <0>       0.0700
35 H35       4.7111     4.3619    -4.2625 H      1 <0>       0.0800
36 H36       3.9767     5.2745    -2.9283 H      1 <0>       0.0800
37 H37       6.8144     5.2753    -3.3089 H      1 <0>       0.1300
38 H38      10.2760     3.4105    -1.1846 H      1 <0>       0.0600
39 H39      10.9610     5.0464    -1.3353 H      1 <0>       0.1000
40 H40       9.7995     4.6842    -0.0362 H      1 <0>       0.0600
41 H41       8.5152     3.0262    -0.1039 H      1 <0>       0.1300
42 H42       6.3578     1.9022     0.2372 H      1 <0>       0.1300
43 H43       4.6846     1.3555     0.7788 H      1 <0>       0.0700
44 H44       3.8469     2.9151     0.9335 H      1 <0>       0.0700
45 H45       2.5592     0.2521     0.1462 H      1 <0>       0.0600
46 H46       2.3638     1.0997     1.7040 H      1 <0>       0.0700
47 H47       2.3934     3.8780     0.4401 H      1 <0>       0.0700
48 H48       0.6756     4.0425     0.0038 H      1 <0>       0.0600
49 H49       1.1307     3.4213     1.6086 H      1 <0>       0.0600
@<TRIPOS>BOND
1    1    2 3
2    1   27 1
3    2    3 1
4    3   25 1
5    3    4 1
6    3    5 1
7    4   28 1
8    5    6 1
9    5   29 1
10    5   30 1
11    6    7 1
12    6   31 1
13    6   32 1
14    7    8 1
15    7   25 1
16    7    9 1
17    9   10 1
18    9   21 1
19    9   11 1
20   11   12 1
21   11   33 1
22   11   34 1
23   12   13 1
24   12   35 1
25   12   36 1
26   13   20 ar
27   13   14 ar
28   14   15 ar
29   14   37 1
30   15   16 1
31   15   18 ar
32   16   17 1
33   17   38 1
34   17   39 1
35   17   40 1
36   18   19 ar
37   18   41 1
38   19   20 ar
39   19   42 1
40   20   21 1
41   21   22 1
42   21   23 1
43   23   24 1
44   23   43 1
45   23   44 1
46   24   25 1
47   24   45 1
48   24   46 1
49   25   26 1
50   26   47 1
51   26   48 1
52   26   49 1
