@<TRIPOS>MOLECULE
ZINC000000968275
49    51    1     0     0
SMALL
USER_CHARGES
@<TRIPOS>ATOM
1      C1      1.2031   -2.7677    2.1705 C.3      1 ZINC000000968275   -0.1800
2      C2      0.5285   -1.4220    2.4442 C.3      1 ZINC000000968275   -0.1500
3      H3      0.9056   -1.0103    3.3803 H        1 ZINC000000968275    0.1000
4      C4      0.8380   -0.4544    1.3001 C.3      1 ZINC000000968275    0.1500
5      N5      2.2712   -0.1508    1.2915 N.pl3    1 ZINC000000968275   -0.6100
6      C6      3.1714   -0.9389    0.5649 C.ar     1 ZINC000000968275    0.1800
7      C7      2.9441   -1.0875   -0.8000 C.ar     1 ZINC000000968275   -0.1400
8      C8      3.8122   -1.8234   -1.5788 C.ar     1 ZINC000000968275   -0.1000
9      C9      4.9156   -2.4111   -0.9874 C.ar     1 ZINC000000968275   -0.1300
10     C10     5.1327   -2.2755    0.3647 C.ar     1 ZINC000000968275   -0.1100
11     C11     4.2565   -1.5497    1.1742 C.ar     1 ZINC000000968275   -0.1000
12     C12     4.5968   -1.5671    2.6477 C.3      1 ZINC000000968275   -0.0700
13     C13     3.5821   -0.8277    3.5016 C.3      1 ZINC000000968275   -0.0800
14     C14     3.5130    0.6306    3.1293 C.ar     1 ZINC000000968275   -0.1000
15     C15     4.1331    1.6169    3.8611 C.ar     1 ZINC000000968275   -0.1000
16     C16     3.9904    2.9370    3.4571 C.ar     1 ZINC000000968275   -0.1200
17     C17     3.2360    3.2517    2.3417 C.ar     1 ZINC000000968275   -0.1100
18     C18     2.6223    2.2507    1.6051 C.ar     1 ZINC000000968275   -0.1200
19     C19     2.7821    0.9398    2.0050 C.ar     1 ZINC000000968275    0.1500
20     C20    -0.9848   -1.6219    2.5478 C.3      1 ZINC000000968275   -0.0100
21     N21    -1.2897   -2.4547    3.7188 N.4      1 ZINC000000968275   -0.3900
22     H22    -0.7728   -3.3193    3.6604 H        1 ZINC000000968275    0.4300
23     C23    -0.9078   -1.7375    4.9426 C.3      1 ZINC000000968275   -0.0500
24     C24    -2.7292   -2.7461    3.7511 C.3      1 ZINC000000968275   -0.0500
25     H25     2.2686   -2.6122    2.0010 H        1 ZINC000000968275    0.1000
26     H26     1.0639   -3.4251    3.0287 H        1 ZINC000000968275    0.0500
27     H27     0.7575   -3.2245    1.2868 H        1 ZINC000000968275    0.0700
28     H28     0.5579   -0.9120    0.3514 H        1 ZINC000000968275    0.0800
29     H29     0.2724    0.4668    1.4403 H        1 ZINC000000968275    0.0800
30     H30     2.0807   -0.6229   -1.2529 H        1 ZINC000000968275    0.1200
31     H31     3.6324   -1.9398   -2.6373 H        1 ZINC000000968275    0.1300
32     H32     5.6096   -2.9790   -1.5892 H        1 ZINC000000968275    0.1300
33     H33     6.0001   -2.7405    0.8095 H        1 ZINC000000968275    0.1200
34     H34     4.6490   -2.6029    2.9832 H        1 ZINC000000968275    0.0800
35     H35     5.5746   -1.1062    2.7871 H        1 ZINC000000968275    0.0800
36     H36     2.6001   -1.2791    3.3602 H        1 ZINC000000968275    0.0800
37     H37     3.8665   -0.9154    4.5501 H        1 ZINC000000968275    0.0700
38     H38     4.7193    1.3687    4.7335 H        1 ZINC000000968275    0.1300
39     H39     4.4717    3.7243    4.0182 H        1 ZINC000000968275    0.1300
40     H40     3.1241    4.2835    2.0429 H        1 ZINC000000968275    0.1300
41     H41     2.0305    2.4907    0.7342 H        1 ZINC000000968275    0.1300
42     H42    -1.4728   -0.6530    2.6540 H        1 ZINC000000968275    0.1300
43     H43    -1.3487   -2.1152    1.6464 H        1 ZINC000000968275    0.1300
44     H44    -1.4662   -0.8035    5.0056 H        1 ZINC000000968275    0.1200
45     H45    -1.1340   -2.3555    5.8115 H        1 ZINC000000968275    0.1300
46     H46     0.1603   -1.5213    4.9187 H        1 ZINC000000968275    0.1200
47     H47    -3.0126   -3.2783    2.8430 H        1 ZINC000000968275    0.1200
48     H48    -2.9554   -3.3641    4.6200 H        1 ZINC000000968275    0.1200
49     H49    -3.2876   -1.8122    3.8141 H        1 ZINC000000968275    0.1200
@<TRIPOS>BOND
1     1     2     1
2     1     25    1
3     1     26    1
4     1     27    1
5     2     3     1
6     2     4     1
7     2     20    1
8     4     5     1
9     4     28    1
10    4     29    1
11    5     19    1
12    5     6     1
13    6     11    ar
14    6     7     ar
15    7     8     ar
16    7     30    1
17    8     9     ar
18    8     31    1
19    9     10    ar
20    9     32    1
21    10    11    ar
22    10    33    1
23    11    12    1
24    12    13    1
25    12    34    1
26    12    35    1
27    13    14    1
28    13    36    1
29    13    37    1
30    14    19    ar
31    14    15    ar
32    15    16    ar
33    15    38    1
34    16    17    ar
35    16    39    1
36    17    18    ar
37    17    40    1
38    18    19    ar
39    18    41    1
40    20    21    1
41    20    42    1
42    20    43    1
43    21    22    1
44    21    23    1
45    21    24    1
46    23    44    1
47    23    45    1
48    23    46    1
49    24    47    1
50    24    48    1
51    24    49    1
@<TRIPOS>SUBSTRUCTURE
1   ZINC000000968275 1     RESIDUE    1   A     ZIN   1
