@<TRIPOS>MOLECULE
ZINC000011677857
60    63    1     0     0
SMALL
USER_CHARGES
@<TRIPOS>ATOM
1      C1     -0.0696    1.5010    0.0004 C.3      1 ZINC000011677857    0.0200
2      O2     -0.0401    0.0723    0.0090 O.3      1 ZINC000011677857   -0.3000
3      C3     -1.2382   -0.5697    0.0160 C.ar     1 ZINC000011677857    0.1500
4      C4     -2.4172    0.1601    0.0089 C.ar     1 ZINC000011677857   -0.2000
5      C5     -3.6342   -0.4947    0.0156 C.ar     1 ZINC000011677857   -0.0500
6      C6     -3.6773   -1.8763    0.0298 C.ar     1 ZINC000011677857   -0.1400
7      C7     -5.0061   -2.5873    0.0370 C.3      1 ZINC000011677857    0.1700
8      N8     -5.4366   -2.8318   -1.3418 N.pl3    1 ZINC000011677857   -0.6800
9      C9     -6.6319   -3.4740   -1.5872 C.ar     1 ZINC000011677857    0.5100
10     N10    -7.3531   -3.9650   -0.5865 N.ar     1 ZINC000011677857   -0.5800
11     C11    -8.5021   -4.5827   -0.8183 C.ar     1 ZINC000011677857    0.5500
12     N12    -9.2216   -5.0782    0.2493 N.3      1 ZINC000011677857   -0.4300
13     C13    -8.4745   -6.1623    0.9375 C.3      1 ZINC000011677857    0.0600
14     C14    -9.5557   -6.9533    1.7048 C.3      1 ZINC000011677857   -0.1200
15     C15   -10.8708   -6.6707    0.9496 C.3      1 ZINC000011677857   -0.1200
16     C16   -10.4736   -5.7327   -0.2104 C.3      1 ZINC000011677857    0.0800
17     H17   -10.2909   -6.3073   -1.1184 H        1 ZINC000011677857    0.0900
18     C18   -11.5666   -4.6895   -0.4513 C.3      1 ZINC000011677857    0.0900
19     O19   -11.8577   -4.0131    0.7734 O.3      1 ZINC000011677857   -0.5600
20     N20    -8.9826   -4.7391   -2.0457 N.ar     1 ZINC000011677857   -0.6000
21     C21    -8.3294   -4.2812   -3.0979 C.ar     1 ZINC000011677857    0.2400
22     C22    -7.1137   -3.6160   -2.9070 C.ar     1 ZINC000011677857   -0.3500
23     C23    -6.3523   -3.0889   -4.0509 C.2      1 ZINC000011677857    0.5900
24     O24    -5.2503   -2.6045   -3.8767 O.2      1 ZINC000011677857   -0.5500
25     N25    -6.8761   -3.1431   -5.2916 N.am     1 ZINC000011677857   -0.7200
26     C26    -6.1181   -2.6184   -6.4302 C.3      1 ZINC000011677857    0.1900
27     C27    -6.9203   -2.7982   -7.6933 C.ar     1 ZINC000011677857    0.3000
28     N28    -6.7859   -3.9117   -8.3854 N.ar     1 ZINC000011677857   -0.5000
29     C29    -7.4737   -4.1048   -9.4993 C.ar     1 ZINC000011677857    0.1500
30     C30    -8.3435   -3.1172   -9.9343 C.ar     1 ZINC000011677857   -0.2200
31     C31    -8.4577   -1.9603   -9.1797 C.ar     1 ZINC000011677857    0.1500
32     N32    -7.7414   -1.8400   -8.0735 N.ar     1 ZINC000011677857   -0.5000
33     C33    -2.5034   -2.6073    0.0369 C.ar     1 ZINC000011677857   -0.0500
34     C34    -1.2836   -1.9575    0.0244 C.ar     1 ZINC000011677857   -0.0700
35     Cl35    0.1900   -2.8751    0.0334 Cl       1 ZINC000011677857   -0.0500
36     H36     0.9503    1.8854   -0.0046 H        1 ZINC000011677857    0.1100
37     H37    -0.5932    1.8482   -0.8903 H        1 ZINC000011677857    0.0600
38     H38    -0.5885    1.8589    0.8897 H        1 ZINC000011677857    0.0600
39     H39    -2.3845    1.2396   -0.0015 H        1 ZINC000011677857    0.1400
40     H40    -4.5525    0.0736    0.0100 H        1 ZINC000011677857    0.1300
41     H41    -4.9066   -3.5381    0.5606 H        1 ZINC000011677857    0.0800
42     H42    -5.7463   -1.9687    0.5445 H        1 ZINC000011677857    0.0800
43     H43    -4.8808   -2.5420   -2.0821 H        1 ZINC000011677857    0.4300
44     H44    -7.9790   -6.8042    0.2091 H        1 ZINC000011677857    0.0500
45     H45    -7.7471   -5.7413    1.6316 H        1 ZINC000011677857    0.1000
46     H46    -9.3297   -8.0195    1.6857 H        1 ZINC000011677857    0.0800
47     H47    -9.6259   -6.5987    2.7331 H        1 ZINC000011677857    0.0800
48     H48   -11.2903   -7.5981    0.5599 H        1 ZINC000011677857    0.0700
49     H49   -11.5865   -6.1774    1.6073 H        1 ZINC000011677857    0.0900
50     H50   -11.2230   -3.9677   -1.1923 H        1 ZINC000011677857    0.0500
51     H51   -12.4668   -5.1841   -0.8160 H        1 ZINC000011677857    0.0500
52     H52   -12.5436   -3.3359    0.6952 H        1 ZINC000011677857    0.3800
53     H53    -8.7302   -4.4148   -4.0918 H        1 ZINC000011677857    0.1600
54     H54    -7.7549   -3.5294   -5.4306 H        1 ZINC000011677857    0.4000
55     H55    -5.9170   -1.5584   -6.2754 H        1 ZINC000011677857    0.1000
56     H56    -5.1752   -3.1580   -6.5187 H        1 ZINC000011677857    0.1000
57     H57    -7.3587   -5.0194  -10.0620 H        1 ZINC000011677857    0.1700
58     H58    -8.9180   -3.2459  -10.8397 H        1 ZINC000011677857    0.1500
59     H59    -9.1252   -1.1693   -9.4882 H        1 ZINC000011677857    0.1700
60     H60    -2.5398   -3.6866    0.0479 H        1 ZINC000011677857    0.1400
@<TRIPOS>BOND
1     1     2     1
2     1     36    1
3     1     37    1
4     1     38    1
5     2     3     1
6     3     34    ar
7     3     4     ar
8     4     5     ar
9     4     39    1
10    5     6     ar
11    5     40    1
12    6     7     1
13    6     33    ar
14    7     8     1
15    7     41    1
16    7     42    1
17    8     9     1
18    8     43    1
19    9     22    ar
20    9     10    ar
21    10    11    ar
22    11    12    1
23    11    20    ar
24    12    16    1
25    12    13    1
26    13    14    1
27    13    44    1
28    13    45    1
29    14    15    1
30    14    46    1
31    14    47    1
32    15    16    1
33    15    48    1
34    15    49    1
35    16    17    1
36    16    18    1
37    18    19    1
38    18    50    1
39    18    51    1
40    19    52    1
41    20    21    ar
42    21    22    ar
43    21    53    1
44    22    23    1
45    23    24    2
46    23    25    am
47    25    26    1
48    25    54    1
49    26    27    1
50    26    55    1
51    26    56    1
52    27    32    ar
53    27    28    ar
54    28    29    ar
55    29    30    ar
56    29    57    1
57    30    31    ar
58    30    58    1
59    31    32    ar
60    31    59    1
61    33    34    ar
62    33    60    1
63    34    35    1
@<TRIPOS>SUBSTRUCTURE
1   ZINC000011677857 1     RESIDUE    1   A     ZIN   1
