@<TRIPOS>MOLECULE
ZINC000052971887
25   24    0    0    0
SMALL
USER_CHARGES
NO_NAME
@<TRIPOS>ATOM
1 N1       -0.0116     1.0048     0.0076 N.4    1 <0>      -0.6400
2 H2        0.0021    -0.0041     0.0020 H      1 <0>       0.4400
3 H3        0.9350     1.3541     0.0004 H      1 <0>       0.4500
4 H4       -0.4996     1.3391    -0.8099 H      1 <0>       0.4300
5 C5       -0.6992     1.4786     1.2162 C.3    1 <0>       0.0000
6 C6       -2.1346     0.9490     1.2270 C.3    1 <0>      -0.1800
7 C7       -2.8507     1.4424     2.4858 C.3    1 <0>      -0.1200
8 C8       -4.2861     0.9128     2.4967 C.3    1 <0>      -0.0800
9 N9       -4.9600     1.2992     1.2499 N.4    1 <0>      -0.6100
10 H10      -4.4631     0.9079     0.4638 H      1 <0>       0.4100
11 H11      -5.9066     0.9500     1.2571 H      1 <0>       0.4500
12 H12      -4.9733     2.3052     1.1725 H      1 <0>       0.4400
13 C13      -5.0283     1.4973     3.6709 C.2    1 <0>       0.4900
14 O14      -6.0262     2.1730     3.4862 O.co2  1 <0>      -0.6500
15 O15      -4.6309     1.2943     4.8055 O.co2  1 <0>      -0.6000
16 C16      -4.2661    -0.6125     2.6140 C.3    1 <0>       0.2800
17 F17      -3.6242    -0.9805     3.8014 F      1 <0>      -0.1600
18 F18      -5.5785    -1.0968     2.6240 F      1 <0>      -0.1800
19 H19      -0.1720     1.1175     2.0992 H      1 <0>       0.1500
20 H20      -0.7140     2.5685     1.2222 H      1 <0>       0.1400
21 H21      -2.6618     1.3101     0.3440 H      1 <0>       0.0800
22 H22      -2.1198    -0.1409     1.2210 H      1 <0>       0.1000
23 H23      -2.3235     1.0813     3.3689 H      1 <0>       0.1300
24 H24      -2.8655     2.5323     2.4918 H      1 <0>       0.1100
25 H25      -3.7292    -1.0352     1.7648 H      1 <0>       0.1100
@<TRIPOS>BOND
1    1    2 1
2    1    3 1
3    1    4 1
4    1    5 1
5    5    6 1
6    5   19 1
7    5   20 1
8    6    7 1
9    6   21 1
10    6   22 1
11    7    8 1
12    7   23 1
13    7   24 1
14    8    9 1
15    8   13 1
16    8   16 1
17    9   10 1
18    9   11 1
19    9   12 1
20   13   14 ar
21   13   15 ar
22   16   17 1
23   16   18 1
24   16   25 1
