@<TRIPOS>MOLECULE
ZINC000012360535
20   21    0    0    0
SMALL
USER_CHARGES
NO_NAME
@<TRIPOS>ATOM
1 N1       -0.0164     1.3618     0.0095 N.3    1 <0>      -0.5900
2 N2        0.0021    -0.0041     0.0020 N.pl3  1 <0>      -0.5500
3 C3       -1.1879    -0.7128     0.0096 C.ar   1 <0>       0.3800
4 C4       -1.1841    -2.1262     0.0079 C.ar   1 <0>      -0.1100
5 C5       -0.0059    -2.8800    -0.0012 C.ar   1 <0>      -0.0900
6 C6       -0.0822    -4.2417    -0.0019 C.ar   1 <0>      -0.1100
7 C7       -1.3137    -4.8925     0.0059 C.ar   1 <0>      -0.0900
8 C8       -2.4811    -4.1885     0.0145 C.ar   1 <0>      -0.1000
9 C9       -2.4394    -2.7883     0.0164 C.ar   1 <0>      -0.0400
10 C10      -3.5998    -1.9924     0.0256 C.ar   1 <0>       0.0200
11 N11      -3.4773    -0.6850     0.0272 N.ar   1 <0>      -0.2200
12 N12      -2.3482    -0.0803     0.0240 N.ar   1 <0>      -0.3200
13 H13       0.9205     1.7362     0.0026 H      1 <0>       0.3600
14 H14      -0.5549     1.7204    -0.7648 H      1 <0>       0.3500
15 H15       0.8486    -0.4776    -0.0086 H      1 <0>       0.4100
16 H16       0.9555    -2.3882    -0.0081 H      1 <0>       0.1300
17 H17       0.8269    -4.8248    -0.0090 H      1 <0>       0.1300
18 H18      -1.3442    -5.9720     0.0048 H      1 <0>       0.1300
19 H19      -3.4293    -4.7056     0.0197 H      1 <0>       0.1400
20 H20      -4.5778    -2.4505     0.0309 H      1 <0>       0.1700
@<TRIPOS>BOND
1    1    2 1
2    1   13 1
3    1   14 1
4    2    3 1
5    2   15 1
6    3   12 ar
7    3    4 ar
8    4    9 ar
9    4    5 ar
10    5    6 ar
11    5   16 1
12    6    7 ar
13    6   17 1
14    7    8 ar
15    7   18 1
16    8    9 ar
17    8   19 1
18    9   10 ar
19   10   11 ar
20   10   20 1
21   11   12 ar
