@<TRIPOS>MOLECULE
ZINC000034676245
12   12    0    0    0
SMALL
USER_CHARGES
NO_NAME
@<TRIPOS>ATOM
1 N1       -0.0178     1.4648     0.0101 N.3    1 <0>      -0.8200
2 C2        0.0021    -0.0041     0.0020 C.3    1 <0>       0.0200
3 H3        0.5194    -0.3778    -0.8816 H      1 <0>       0.0400
4 C4       -1.4348    -0.5738     0.0799 C.3    1 <0>       0.0300
5 O5       -1.5855    -0.7850     1.4988 O.3    1 <0>      -0.2400
6 N6       -0.2920    -0.9558     2.0432 N.2    1 <0>      -0.4600
7 C7        0.6417    -0.5412     1.2682 C.2    1 <0>       0.3600
8 O8        1.9664    -0.5765     1.5372 O.3    1 <0>      -0.7200
9 H9        0.9191     1.8392     0.0032 H      1 <0>       0.3400
10 H10      -0.5563     1.8234    -0.7642 H      1 <0>       0.3300
11 H11      -2.1626     0.1501    -0.2870 H      1 <0>       0.0700
12 H12      -1.5124    -1.5143    -0.4656 H      1 <0>       0.0500
@<TRIPOS>BOND
1    1    2 1
2    1    9 1
3    1   10 1
4    2    3 1
5    2    7 1
6    2    4 1
7    4    5 1
8    4   11 1
9    4   12 1
10    5    6 1
11    6    7 2
12    7    8 1
