@<TRIPOS>MOLECULE
ZINC000001530805
21    21    1     0     0
SMALL
USER_CHARGES
@<TRIPOS>ATOM
1      C1     -0.0187    1.5258    0.0104 C.3      1 ZINC000001530805   -0.1700
2      C2      0.0021   -0.0041    0.0020 C.3      1 ZINC000001530805   -0.1000
3      C3     -1.4333   -0.5336    0.0129 C.3      1 ZINC000001530805   -0.1000
4      C4     -2.1864   -0.0692   -1.2354 C.3      1 ZINC000001530805   -0.1400
5      C5     -1.4434   -2.0725    0.1157 C.3      1 ZINC000001530805   -0.1500
6      C6     -2.1699   -2.3362    1.4166 C.2      1 ZINC000001530805    0.5300
7      O7     -2.3990   -3.4313    1.8834 O.2      1 ZINC000001530805   -0.4800
8      N8     -2.5193   -1.1686    1.9705 N.am     1 ZINC000001530805   -0.6800
9      C9     -2.1553   -0.0897    1.2664 C.2      1 ZINC000001530805    0.5400
10     O10    -2.3697    1.0607    1.5831 O.2      1 ZINC000001530805   -0.4700
11     H11     1.0039    1.9031    0.0027 H        1 ZINC000001530805    0.0600
12     H12    -0.5459    1.8868   -0.8726 H        1 ZINC000001530805    0.0600
13     H13    -0.5289    1.8773    0.9072 H        1 ZINC000001530805    0.0700
14     H14     0.5123   -0.3556   -0.8948 H        1 ZINC000001530805    0.0800
15     H15     0.5293   -0.3651    0.8851 H        1 ZINC000001530805    0.0700
16     H16    -1.6788   -0.4412   -2.1253 H        1 ZINC000001530805    0.0800
17     H17    -3.2052   -0.4556   -1.2098 H        1 ZINC000001530805    0.0600
18     H18    -2.2115    1.0203   -1.2601 H        1 ZINC000001530805    0.0800
19     H19    -1.9863   -2.5094   -0.7223 H        1 ZINC000001530805    0.1200
20     H20    -0.4258   -2.4607    0.1592 H        1 ZINC000001530805    0.1200
21     H21    -2.9972   -1.1092    2.8125 H        1 ZINC000001530805    0.4200
@<TRIPOS>BOND
1     1     2     1
2     1     11    1
3     1     12    1
4     1     13    1
5     2     3     1
6     2     14    1
7     2     15    1
8     3     9     1
9     3     4     1
10    3     5     1
11    4     16    1
12    4     17    1
13    4     18    1
14    5     6     1
15    5     19    1
16    5     20    1
17    6     7     2
18    6     8     am
19    8     9     am
20    8     21    1
21    9     10    2
@<TRIPOS>SUBSTRUCTURE
1   ZINC000001530805 1     RESIDUE    1   A     ZIN   1
