@<TRIPOS>MOLECULE
ZINC000003875334
59    62    1     0     0
SMALL
USER_CHARGES
@<TRIPOS>ATOM
1      C1      0.5932    1.5496   -0.0723 C.3      1 ZINC000003875334   -0.1500
2      C2      0.6133    0.0427   -0.0729 C.2      1 ZINC000003875334    0.4600
3      O3      0.8523   -0.5587    0.9474 O.2      1 ZINC000003875334   -0.5100
4      O4      0.3656   -0.6313   -1.2070 O.3      1 ZINC000003875334   -0.3400
5      C5      0.4017   -2.0810   -1.1335 C.3      1 ZINC000003875334    0.0100
6      C6      0.1019   -2.6605   -2.4919 C.2      1 ZINC000003875334    0.3300
7      O7     -0.1193   -1.9274   -3.4256 O.2      1 ZINC000003875334   -0.4000
8      C8      0.0782   -4.1549   -2.6851 C.3      1 ZINC000003875334    0.1100
9      O9      0.8404   -4.7972   -1.6611 O.3      1 ZINC000003875334   -0.5400
10     C10    -1.3802   -4.6731   -2.6743 C.3      1 ZINC000003875334   -0.1400
11     C11    -1.5990   -5.3958   -4.0301 C.3      1 ZINC000003875334   -0.1100
12     C12    -0.1761   -5.7880   -4.4482 C.3      1 ZINC000003875334   -0.0800
13     H13     0.1660   -6.6475   -3.8717 H        1 ZINC000003875334    0.0900
14     C14     0.0184   -6.0363   -5.9304 C.3      1 ZINC000003875334   -0.0800
15     H15    -0.2179   -5.1297   -6.4876 H        1 ZINC000003875334    0.1000
16     C16    -0.8641   -7.1845   -6.4203 C.3      1 ZINC000003875334   -0.1100
17     C17    -0.6983   -7.3187   -7.9372 C.3      1 ZINC000003875334   -0.1000
18     C18     0.7748   -7.4770   -8.2659 C.2      1 ZINC000003875334   -0.0200
19     C19     1.1189   -8.4540   -9.1046 C.2      1 ZINC000003875334   -0.2400
20     C20     2.5251   -8.6490   -9.4718 C.2      1 ZINC000003875334    0.3900
21     O21     2.9310   -9.7072   -9.9049 O.2      1 ZINC000003875334   -0.4600
22     C22     3.4452   -7.4590   -9.2824 C.3      1 ZINC000003875334   -0.1700
23     C23     3.2132   -6.9221   -7.8708 C.3      1 ZINC000003875334   -0.1100
24     C24     1.7628   -6.5315   -7.6497 C.3      1 ZINC000003875334   -0.0200
25     C25     1.5429   -5.1461   -8.2607 C.3      1 ZINC000003875334   -0.1600
26     C26     1.4947   -6.4069   -6.1489 C.3      1 ZINC000003875334   -0.1200
27     H27     1.6908   -7.3650   -5.6675 H        1 ZINC000003875334    0.1100
28     C28     2.3879   -5.3537   -5.5441 C.2      1 ZINC000003875334    0.3700
29     O29     3.3226   -4.9150   -6.1702 O.2      1 ZINC000003875334   -0.4400
30     C30     2.1008   -4.8481   -4.1376 C.3      1 ZINC000003875334   -0.1500
31     C31     0.6305   -4.5183   -4.0613 C.3      1 ZINC000003875334   -0.0400
32     C32     0.2880   -3.4280   -5.0785 C.3      1 ZINC000003875334   -0.1500
33     H33     1.5906    1.9263   -0.2991 H        1 ZINC000003875334    0.1100
34     H34    -0.1092    1.9039   -0.8267 H        1 ZINC000003875334    0.1000
35     H35     0.2837    1.9084    0.9093 H        1 ZINC000003875334    0.1100
36     H36     1.3916   -2.4039   -0.8111 H        1 ZINC000003875334    0.1100
37     H37    -0.3443   -2.4272   -0.4181 H        1 ZINC000003875334    0.1000
38     H38     0.5246   -4.6182   -0.7649 H        1 ZINC000003875334    0.3800
39     H39    -1.5224   -5.3725   -1.8504 H        1 ZINC000003875334    0.0900
40     H40    -2.0734   -3.8372   -2.5798 H        1 ZINC000003875334    0.0800
41     H41    -2.2199   -6.2820   -3.8985 H        1 ZINC000003875334    0.0800
42     H42    -2.0422   -4.7187   -4.7604 H        1 ZINC000003875334    0.0800
43     H43    -0.5595   -8.1121   -5.9357 H        1 ZINC000003875334    0.0700
44     H44    -1.9065   -6.9710   -6.1839 H        1 ZINC000003875334    0.0800
45     H45    -1.2456   -8.1939   -8.2874 H        1 ZINC000003875334    0.0800
46     H46    -1.0866   -6.4254   -8.4265 H        1 ZINC000003875334    0.0900
47     H47     0.3601   -9.1040   -9.5146 H        1 ZINC000003875334    0.1400
48     H48     4.4834   -7.7720   -9.3939 H        1 ZINC000003875334    0.0900
49     H49     3.2091   -6.6878  -10.0156 H        1 ZINC000003875334    0.1000
50     H50     3.4884   -7.6907   -7.1485 H        1 ZINC000003875334    0.0600
51     H51     3.8447   -6.0474   -7.7150 H        1 ZINC000003875334    0.1100
52     H52     1.7634   -5.1804   -9.3277 H        1 ZINC000003875334    0.0600
53     H53     0.5059   -4.8445   -8.1135 H        1 ZINC000003875334    0.0600
54     H54     2.2029   -4.4265   -7.7763 H        1 ZINC000003875334    0.0800
55     H55     2.3147   -5.6297   -3.4087 H        1 ZINC000003875334    0.1100
56     H56     2.7039   -3.9647   -3.9278 H        1 ZINC000003875334    0.0900
57     H57     0.4779   -3.7984   -6.0860 H        1 ZINC000003875334    0.0600
58     H58    -0.7639   -3.1591   -4.9825 H        1 ZINC000003875334    0.0700
59     H59     0.9061   -2.5498   -4.8918 H        1 ZINC000003875334    0.0700
@<TRIPOS>BOND
1     1     2     1
2     1     33    1
3     1     34    1
4     1     35    1
5     2     3     2
6     2     4     1
7     4     5     1
8     5     6     1
9     5     36    1
10    5     37    1
11    6     7     2
12    6     8     1
13    8     31    1
14    8     9     1
15    8     10    1
16    9     38    1
17    10    11    1
18    10    39    1
19    10    40    1
20    11    12    1
21    11    41    1
22    11    42    1
23    12    13    1
24    12    31    1
25    12    14    1
26    14    15    1
27    14    26    1
28    14    16    1
29    16    17    1
30    16    43    1
31    16    44    1
32    17    18    1
33    17    45    1
34    17    46    1
35    18    24    1
36    18    19    2
37    19    20    1
38    19    47    1
39    20    21    2
40    20    22    1
41    22    23    1
42    22    48    1
43    22    49    1
44    23    24    1
45    23    50    1
46    23    51    1
47    24    25    1
48    24    26    1
49    25    52    1
50    25    53    1
51    25    54    1
52    26    27    1
53    26    28    1
54    28    29    2
55    28    30    1
56    30    31    1
57    30    55    1
58    30    56    1
59    31    32    1
60    32    57    1
61    32    58    1
62    32    59    1
@<TRIPOS>SUBSTRUCTURE
1   ZINC000003875334 1     RESIDUE    1   A     ZIN   1
