@<TRIPOS>MOLECULE
ZINC000003977777
71    76    1     0     0
SMALL
USER_CHARGES
@<TRIPOS>ATOM
1      C1     -0.9147    1.6907   -2.6674 C.3      1 ZINC000003977777   -0.1500
2      C2     -1.0249    0.2021   -2.8743 C.2      1 ZINC000003977777    0.4600
3      O3     -0.5325   -0.3101   -3.8516 O.2      1 ZINC000003977777   -0.5100
4      O4     -1.6700   -0.5549   -1.9729 O.3      1 ZINC000003977777   -0.3400
5      C5     -1.7370   -1.9811   -2.2370 C.3      1 ZINC000003977777    0.0200
6      C6     -2.4932   -2.6627   -1.1258 C.2      1 ZINC000003977777    0.3600
7      O7     -2.8529   -2.0289   -0.1629 O.2      1 ZINC000003977777   -0.4100
8      C8     -2.8005   -4.1353   -1.2163 C.3      1 ZINC000003977777    0.0500
9      O9     -1.7415   -4.8643   -1.8690 O.3      1 ZINC000003977777   -0.3400
10     C10    -0.9586   -5.4031   -0.7945 C.3      1 ZINC000003977777    0.2500
11     C11    -0.1268   -6.6002   -1.2756 C.3      1 ZINC000003977777   -0.1100
12     C12     1.2751   -5.9971   -1.5503 C.3      1 ZINC000003977777   -0.1200
13     C13     1.4315   -4.9574   -0.4120 C.3      1 ZINC000003977777   -0.1200
14     C14     0.0175   -4.3570   -0.2494 C.3      1 ZINC000003977777   -0.1700
15     O15    -1.8966   -5.8061    0.2118 O.3      1 ZINC000003977777   -0.3500
16     C16    -2.9237   -4.7914    0.1912 C.3      1 ZINC000003977777    0.0600
17     H17    -2.8095   -4.0686    0.9990 H        1 ZINC000003977777    0.1100
18     C18    -4.3016   -5.5066    0.2292 C.3      1 ZINC000003977777   -0.1100
19     C19    -4.6036   -5.7611   -1.2516 C.3      1 ZINC000003977777   -0.0800
20     H20    -4.0049   -6.5922   -1.6243 H        1 ZINC000003977777    0.0900
21     C21    -6.0672   -5.9672   -1.5973 C.3      1 ZINC000003977777   -0.1000
22     H22    -6.6462   -5.1014   -1.2758 H        1 ZINC000003977777    0.1100
23     C23    -6.5935   -7.2255   -0.9044 C.3      1 ZINC000003977777   -0.1200
24     C24    -8.0829   -7.4007   -1.2178 C.3      1 ZINC000003977777   -0.0900
25     C25    -8.2510   -7.4101   -2.7256 C.2      1 ZINC000003977777   -0.0300
26     C26    -8.9309   -8.3989   -3.2894 C.2      1 ZINC000003977777   -0.2200
27     C27    -9.0984   -8.4535   -4.7499 C.2      1 ZINC000003977777    0.4100
28     O28    -9.7565   -9.3363   -5.2680 O.2      1 ZINC000003977777   -0.4600
29     C29    -8.4522   -7.4155   -5.5708 C.2      1 ZINC000003977777   -0.2100
30     C30    -7.7839   -6.4340   -4.9857 C.2      1 ZINC000003977777   -0.0700
31     C31    -7.6383   -6.2881   -3.5101 C.3      1 ZINC000003977777   -0.0300
32     C32    -8.3396   -4.9924   -3.0973 C.3      1 ZINC000003977777   -0.1400
33     C33    -6.1665   -6.1191   -3.1235 C.3      1 ZINC000003977777    0.1600
34     F34    -5.4561   -7.2626   -3.5040 F        1 ZINC000003977777   -0.1900
35     C35    -5.5858   -4.9185   -3.8646 C.3      1 ZINC000003977777    0.0900
36     H36    -5.5874   -5.1264   -4.9345 H        1 ZINC000003977777    0.0800
37     O37    -6.4036   -3.7744   -3.6112 O.3      1 ZINC000003977777   -0.5400
38     C38    -4.1482   -4.6144   -3.4154 C.3      1 ZINC000003977777   -0.1300
39     C39    -4.1384   -4.3930   -1.8972 C.3      1 ZINC000003977777   -0.0500
40     C40    -5.1534   -3.3102   -1.5253 C.3      1 ZINC000003977777   -0.1700
41     H41    -0.3612    2.1328   -3.4958 H        1 ZINC000003977777    0.1100
42     H42    -1.9129    2.1264   -2.6238 H        1 ZINC000003977777    0.1000
43     H43    -0.3904    1.8898   -1.7327 H        1 ZINC000003977777    0.1000
44     H44    -2.2500   -2.1517   -3.1835 H        1 ZINC000003977777    0.1100
45     H45    -0.7274   -2.3882   -2.2924 H        1 ZINC000003977777    0.1100
46     H46    -0.0693   -7.3625   -0.4986 H        1 ZINC000003977777    0.0900
47     H47    -0.5496   -7.0164   -2.1901 H        1 ZINC000003977777    0.0900
48     H48     2.0459   -6.7646   -1.4807 H        1 ZINC000003977777    0.0800
49     H49     1.3014   -5.5094   -2.5248 H        1 ZINC000003977777    0.0700
50     H50     1.7468   -5.4458    0.5100 H        1 ZINC000003977777    0.0700
51     H51     2.1439   -4.1834   -0.6976 H        1 ZINC000003977777    0.0700
52     H52    -0.0652   -3.4333   -0.8221 H        1 ZINC000003977777    0.0700
53     H53    -0.1889   -4.1651    0.8035 H        1 ZINC000003977777    0.0800
54     H54    -4.2320   -6.4475    0.7751 H        1 ZINC000003977777    0.0900
55     H55    -5.0592   -4.8593    0.6708 H        1 ZINC000003977777    0.0900
56     H56    -6.0425   -8.0948   -1.2633 H        1 ZINC000003977777    0.0800
57     H57    -6.4581   -7.1301    0.1729 H        1 ZINC000003977777    0.0800
58     H58    -8.4378   -8.3438   -0.8022 H        1 ZINC000003977777    0.0900
59     H59    -8.6487   -6.5732   -0.7897 H        1 ZINC000003977777    0.0900
60     H60    -9.3656   -9.1705   -2.6713 H        1 ZINC000003977777    0.1400
61     H61    -8.5232   -7.4552   -6.6477 H        1 ZINC000003977777    0.1400
62     H62    -7.3153   -5.6934   -5.6169 H        1 ZINC000003977777    0.1300
63     H63    -9.4108   -5.1722   -3.0062 H        1 ZINC000003977777    0.0500
64     H64    -7.9450   -4.6552   -2.1388 H        1 ZINC000003977777    0.0800
65     H65    -8.1626   -4.2269   -3.8527 H        1 ZINC000003977777    0.1000
66     H66    -6.0986   -2.9681   -4.0494 H        1 ZINC000003977777    0.3800
67     H67    -3.5012   -5.4617   -3.6424 H        1 ZINC000003977777    0.0900
68     H68    -3.7824   -3.7208   -3.9212 H        1 ZINC000003977777    0.0800
69     H69    -6.1620   -3.6770   -1.7156 H        1 ZINC000003977777    0.1100
70     H70    -5.0500   -3.0628   -0.4688 H        1 ZINC000003977777    0.0600
71     H71    -4.9712   -2.4195   -2.1266 H        1 ZINC000003977777    0.0600
@<TRIPOS>BOND
1     1     2     1
2     1     41    1
3     1     42    1
4     1     43    1
5     2     3     2
6     2     4     1
7     4     5     1
8     5     6     1
9     5     44    1
10    5     45    1
11    6     7     2
12    6     8     1
13    8     16    1
14    8     39    1
15    8     9     1
16    9     10    1
17    10    14    1
18    10    11    1
19    10    15    1
20    11    12    1
21    11    46    1
22    11    47    1
23    12    13    1
24    12    48    1
25    12    49    1
26    13    14    1
27    13    50    1
28    13    51    1
29    14    52    1
30    14    53    1
31    15    16    1
32    16    17    1
33    16    18    1
34    18    19    1
35    18    54    1
36    18    55    1
37    19    20    1
38    19    39    1
39    19    21    1
40    21    22    1
41    21    33    1
42    21    23    1
43    23    24    1
44    23    56    1
45    23    57    1
46    24    25    1
47    24    58    1
48    24    59    1
49    25    31    1
50    25    26    2
51    26    27    1
52    26    60    1
53    27    28    2
54    27    29    1
55    29    30    2
56    29    61    1
57    30    31    1
58    30    62    1
59    31    32    1
60    31    33    1
61    32    63    1
62    32    64    1
63    32    65    1
64    33    34    1
65    33    35    1
66    35    36    1
67    35    37    1
68    35    38    1
69    37    66    1
70    38    39    1
71    38    67    1
72    38    68    1
73    39    40    1
74    40    69    1
75    40    70    1
76    40    71    1
@<TRIPOS>SUBSTRUCTURE
1   ZINC000003977777 1     RESIDUE    1   A     ZIN   1
