@<TRIPOS>MOLECULE
ZINC000006021043
27   27    0    0    0
SMALL
USER_CHARGES
NO_NAME
@<TRIPOS>ATOM
1 C1       -0.0178     1.4648     0.0101 C.3    1 <0>      -0.0500
2 N2        0.0021    -0.0041     0.0020 N.4    1 <0>      -0.5100
3 H3       -0.9445    -0.3533     0.0092 H      1 <0>       0.4300
4 H4        0.4744    -0.3295    -0.8281 H      1 <0>       0.4300
5 C5        0.7126    -0.4907     1.1921 C.3    1 <0>       0.0300
6 H6        1.7055    -0.0428     1.2310 H      1 <0>       0.1400
7 C7       -0.0711    -0.1034     2.4478 C.3    1 <0>      -0.1800
8 C8        0.8424    -2.0135     1.1214 C.3    1 <0>      -0.1000
9 C9        1.7173    -2.3894    -0.0467 C.ar   1 <0>      -0.1300
10 C10       1.1542    -2.6057    -1.2905 C.ar   1 <0>      -0.1400
11 C11       1.9567    -2.9505    -2.3619 C.ar   1 <0>      -0.1100
12 C12       3.3223    -3.0785    -2.1897 C.ar   1 <0>      -0.1000
13 C13       3.8855    -2.8613    -0.9461 C.ar   1 <0>      -0.1100
14 C14       3.0835    -2.5123     0.1244 C.ar   1 <0>      -0.1100
15 H15       1.0047     1.8421     0.0024 H      1 <0>       0.1200
16 H16      -0.5450     1.8259    -0.8730 H      1 <0>       0.1300
17 H17      -0.5280     1.8163     0.9069 H      1 <0>       0.1300
18 H18      -0.1636     0.9815     2.4982 H      1 <0>       0.0800
19 H19      -1.0640    -0.5513     2.4090 H      1 <0>       0.0800
20 H20       0.4561    -0.4645     3.3309 H      1 <0>       0.1100
21 H21       1.2897    -2.3833     2.0441 H      1 <0>       0.1200
22 H22      -0.1451    -2.4568     0.9932 H      1 <0>       0.1000
23 H23       0.0873    -2.5057    -1.4250 H      1 <0>       0.1200
24 H24       1.5167    -3.1202    -3.3335 H      1 <0>       0.1300
25 H25       3.9492    -3.3485    -3.0266 H      1 <0>       0.1300
26 H26       4.9524    -2.9616    -0.8114 H      1 <0>       0.1300
27 H27       3.5235    -2.3426     1.0960 H      1 <0>       0.1300
@<TRIPOS>BOND
1    1    2 1
2    1   15 1
3    1   16 1
4    1   17 1
5    2    3 1
6    2    4 1
7    2    5 1
8    5    6 1
9    5    7 1
10    5    8 1
11    7   18 1
12    7   19 1
13    7   20 1
14    8    9 1
15    8   21 1
16    8   22 1
17    9   14 ar
18    9   10 ar
19   10   11 ar
20   10   23 1
21   11   12 ar
22   11   24 1
23   12   13 ar
24   12   25 1
25   13   14 ar
26   13   26 1
27   14   27 1
