@<TRIPOS>MOLECULE
ZINC000003991624
66   67    0    0    0
SMALL
NO_CHARGES
@<TRIPOS>ATOM
1 O1            -0.0173     1.4248     0.0099 O.3
2 C2             0.0021    -0.0041     0.0020 C.3
3 C3            -1.4117    -0.5257     0.0127 C.ar
4 C4            -2.4741     0.3570     0.0219 C.ar
5 C5            -3.7717    -0.1210     0.0322 C.ar
6 C6            -4.9289     0.8443     0.0422 C.3
7 H7            -4.6148     1.7925    -0.3941 H
8 O8            -6.0079     0.3024    -0.7221 O.3
9 C9            -5.3893     1.0736     1.4832 C.3
10 N10           -6.5173     2.0146     1.4929 N.4
11 H11           -6.2266     2.8923     1.0890 H
12 H12           -7.2792     1.6319     0.9533 H
13 C13           -6.9594     2.2347     2.8764 C.3
14 C14           -8.1342     3.2148     2.8866 C.3
15 C15           -8.5947     3.4441     4.3275 C.3
16 C16           -9.7695     4.4242     4.3377 C.3
17 C17          -10.2299     4.6535     5.7786 C.3
18 C18          -11.4048     5.6335     5.7888 C.3
19 O19          -11.8348     5.8477     7.1346 O.3
20 C20          -12.9341     6.7526     7.2565 C.3
21 C21          -13.3075     6.9055     8.7323 C.3
22 O22          -12.2283     7.5248     9.4350 O.3
23 C23          -12.4759     7.7151    10.8295 C.3
24 C24          -11.2788     8.3718    11.4672 C.ar
25 C25          -10.2578     7.5954    11.9853 C.ar
26 Cl26         -10.3549     5.8642    11.9004 Cl
27 C27           -9.1590     8.1990    12.5707 C.ar
28 C28           -9.0813     9.5773    12.6379 C.ar
29 C29          -10.1014    10.3536    12.1209 C.ar
30 C30          -11.1978     9.7513    11.5297 C.ar
31 Cl31         -12.4787    10.7265    10.8799 Cl
32 C32           -4.0091    -1.4829     0.0329 C.ar
33 C33           -2.9499    -2.3700     0.0233 C.ar
34 C34           -1.6474    -1.8930     0.0076 C.ar
35 O35           -0.6038    -2.7635    -0.0019 O.3
36 H36            0.8606     1.8301     0.0037 H
37 H37            0.5123    -0.3556    -0.8948 H
38 H38            0.5293    -0.3651     0.8851 H
39 H39           -2.2912     1.4214     0.0214 H
40 H40           -6.3390    -0.5435    -0.3903 H
41 H41           -5.7033     0.1254     1.9195 H
42 H42           -4.5663     1.4870     2.0661 H
43 H43           -7.2734     1.2865     3.3128 H
44 H44           -6.1363     2.6481     3.4594 H
45 H45           -7.8202     4.1630     2.4502 H
46 H46           -8.9573     2.8014     2.3036 H
47 H47           -8.9087     2.4959     4.7639 H
48 H48           -7.7716     3.8575     4.9105 H
49 H49           -9.4555     5.3724     3.9013 H
50 H50          -10.5925     4.0108     3.7547 H
51 H51          -10.5440     3.7053     6.2150 H
52 H52           -9.4069     5.0668     6.3616 H
53 H53          -11.0908     6.5817     5.3524 H
54 H54          -12.2278     5.2201     5.2058 H
55 H55          -12.6518     7.7240     6.8506 H
56 H56          -13.7888     6.3624     6.7040 H
57 H57          -14.2004     7.5247     8.8189 H
58 H58          -13.5039     5.9228     9.1611 H
59 H59          -13.3515     8.3511    10.9596 H
60 H60          -12.6550     6.7492    11.3018 H
61 H61           -8.3620     7.5929    12.9755 H
62 H62           -8.2234    10.0480    13.0950 H
63 H63          -10.0403    11.4306    12.1740 H
64 H64           -5.0234    -1.8538     0.0414 H
65 H65           -3.1358    -3.4339     0.0242 H
66 H66           -0.3117    -3.0177    -0.8879 H
@<TRIPOS>BOND
1    1    2 1
2    1   36 1
3    2    3 1
4    2   37 1
5    2   38 1
6    3   34 ar
7    3    4 ar
8    4    5 ar
9    4   39 1
10    5    6 1
11    5   32 ar
12    6    7 1
13    6    8 1
14    6    9 1
15    8   40 1
16    9   10 1
17    9   41 1
18    9   42 1
19   10   11 1
20   10   12 1
21   10   13 1
22   13   14 1
23   13   43 1
24   13   44 1
25   14   15 1
26   14   45 1
27   14   46 1
28   15   16 1
29   15   47 1
30   15   48 1
31   16   17 1
32   16   49 1
33   16   50 1
34   17   18 1
35   17   51 1
36   17   52 1
37   18   19 1
38   18   53 1
39   18   54 1
40   19   20 1
41   20   21 1
42   20   55 1
43   20   56 1
44   21   22 1
45   21   57 1
46   21   58 1
47   22   23 1
48   23   24 1
49   23   59 1
50   23   60 1
51   24   30 ar
52   24   25 ar
53   25   26 1
54   25   27 ar
55   27   28 ar
56   27   61 1
57   28   29 ar
58   28   62 1
59   29   30 ar
60   29   63 1
61   30   31 1
62   32   33 ar
63   32   64 1
64   33   34 ar
65   33   65 1
66   34   35 1
67   35   66 1
