@<TRIPOS>MOLECULE
ZINC000000895154
31   32    0    0    0
SMALL
USER_CHARGES
NO_NAME
@<TRIPOS>ATOM
1 C1       -0.0187     1.5258     0.0104 C.3    1 <0>      -0.1800
2 C2        0.0021    -0.0041     0.0020 C.3    1 <0>       0.0700
3 H3        0.5123    -0.3556    -0.8948 H      1 <0>       0.0900
4 O4        0.6932    -0.4774     1.1597 O.3    1 <0>      -0.5400
5 C5       -1.4333    -0.5336     0.0129 C.3    1 <0>       0.0700
6 H6       -1.9334    -0.2470    -0.9122 H      1 <0>       0.0900
7 O7       -2.1371     0.0205     1.1263 O.3    1 <0>      -0.5500
8 C8       -1.4133    -2.0590     0.1302 C.3    1 <0>       0.1200
9 H9       -0.8773    -2.4865    -0.7172 H      1 <0>       0.0800
10 C10      -2.8516    -2.5962     0.1589 C.3    1 <0>       0.1300
11 N11      -3.5157    -2.0765     1.3629 N.pl3  1 <0>      -0.7200
12 C12      -2.8437    -2.1199     2.5744 C.2    1 <0>       0.4000
13 C13      -1.4684    -2.3049     2.5958 C.2    1 <0>      -0.1800
14 N14      -0.7537    -2.4526     1.3857 N.pl3  1 <0>      -0.7300
15 C15      -0.8065    -2.3429     3.8275 C.2    1 <0>       0.5100
16 O16       0.4035    -2.5029     3.8815 O.2    1 <0>      -0.6300
17 N17      -1.5349    -2.1984     4.9560 N.pl3  1 <0>      -0.7100
18 C18      -2.8823    -2.0214     4.8821 C.2    1 <0>       0.5800
19 N19      -3.6030    -1.8782     6.0407 N.pl3  1 <0>      -0.8400
20 N20      -3.5109    -1.9844     3.7266 N.2    1 <0>      -0.6800
21 H21       1.0039     1.9031     0.0027 H      1 <0>       0.0600
22 H22      -0.5459     1.8868    -0.8726 H      1 <0>       0.0600
23 H23      -0.5289     1.8773     0.9072 H      1 <0>       0.0600
24 H24       0.2938    -0.2021     1.9962 H      1 <0>       0.3800
25 H25      -1.7471    -0.1945     1.9846 H      1 <0>       0.3800
26 H26      -3.3867    -2.2607    -0.7294 H      1 <0>       0.0700
27 H27      -2.8362    -3.6857     0.1894 H      1 <0>       0.0500
28 H28      -4.4115    -1.7080     1.3103 H      1 <0>       0.3900
29 H29       0.1499    -2.8053     1.3832 H      1 <0>       0.4000
30 H30      -3.1516    -1.9036     6.8989 H      1 <0>       0.4000
31 H31      -4.5639    -1.7515     6.0017 H      1 <0>       0.3900
@<TRIPOS>BOND
1    1    2 1
2    1   21 1
3    1   22 1
4    1   23 1
5    2    3 1
6    2    4 1
7    2    5 1
8    4   24 1
9    5    6 1
10    5    7 1
11    5    8 1
12    7   25 1
13    8    9 1
14    8   14 1
15    8   10 1
16   10   11 1
17   10   26 1
18   10   27 1
19   11   12 1
20   11   28 1
21   12   20 1
22   12   13 2
23   13   14 1
24   13   15 1
25   14   29 1
26   15   16 2
27   15   17 1
28   17   18 1
29   18   19 1
30   18   20 2
31   19   30 1
32   19   31 1
