@<TRIPOS>MOLECULE
ZINC000001319780
76   82    0    0    0
SMALL
USER_CHARGES
NO_NAME
@<TRIPOS>ATOM
1 C1        0.7055     0.9059     0.1887 C.3    1 <0>       0.0200
2 O2        0.3434    -0.4581     0.4133 O.3    1 <0>      -0.3600
3 C3       -1.0498    -0.6566     0.6571 C.3    1 <0>       0.1400
4 C4       -1.4774     0.1314     1.8929 C.3    1 <0>      -0.1500
5 C5       -2.9257    -0.1910     2.2511 C.3    1 <0>      -0.1200
6 C6       -3.5575    -1.0689     1.1516 C.3    1 <0>      -0.0500
7 C7       -2.8209    -2.3948     1.1416 C.3    1 <0>      -0.1300
8 C8       -1.3252    -2.1480     0.8837 C.3    1 <0>      -0.1000
9 H9       -1.0391    -2.6955    -0.0205 H      1 <0>       0.0900
10 C10      -0.5044    -2.6711     2.0579 C.3    1 <0>       0.1600
11 C11      -1.2414    -2.3779     3.3662 C.3    1 <0>      -0.1700
12 O12       0.7699    -2.0247     2.0738 O.3    1 <0>      -0.5400
13 C13      -0.3084    -4.1813     1.9104 C.3    1 <0>      -0.0900
14 C14       0.5117    -4.4686     0.6511 C.3    1 <0>      -0.1500
15 C15       0.4321    -4.7215     3.1355 C.3    1 <0>      -0.1400
16 C16      -1.6729    -4.8641     1.7972 C.3    1 <0>      -0.1500
17 C17      -5.0574    -1.1072     1.3859 C.3    1 <0>       0.0600
18 H18      -5.2502    -1.5835     2.3551 H      1 <0>       0.1500
19 C19      -5.7082     0.2914     1.4166 C.3    1 <0>      -0.0900
20 C20      -4.8744     1.3799     0.8365 C.ar   1 <0>      -0.0500
21 C21      -5.1195     2.7379     0.9223 C.ar   1 <0>      -0.1200
22 C22      -4.2275     3.6420     0.3659 C.ar   1 <0>      -0.1000
23 C23      -3.0444     3.2709    -0.2706 C.ar   1 <0>       0.1000
24 O24      -2.1915     4.1989    -0.7821 O.3    1 <0>      -0.4800
25 C25      -2.7805     1.8993    -0.3658 C.ar   1 <0>       0.1100
26 C26      -3.7311     1.0390     0.1438 C.ar   1 <0>      -0.1700
27 C27      -3.3369    -0.3686    -0.1965 C.3    1 <0>      -0.0500
28 C28      -4.1103    -1.0210    -1.3085 C.3    1 <0>      -0.1200
29 C29      -5.5796    -1.2300    -0.9775 C.3    1 <0>      -0.0100
30 N30      -5.7969    -1.8197     0.3382 N.4    1 <0>      -0.3800
31 H31      -6.8079    -1.6586     0.5509 H      1 <0>       0.4300
32 C32      -5.6348    -3.2679     0.3558 C.3    1 <0>       0.0200
33 C33      -6.7305    -3.9141    -0.4944 C.3    1 <0>      -0.2100
34 C34      -6.2940    -4.6894    -1.7391 C.3    1 <0>      -0.1700
35 C35      -6.8046    -5.4422    -0.5089 C.3    1 <0>      -0.1500
36 C36      -1.8573    -0.2001    -0.5580 C.3    1 <0>       0.0800
37 H37      -1.6067    -0.7972    -1.4356 H      1 <0>       0.1200
38 O38      -1.7279     1.2030    -0.8433 O.3    1 <0>      -0.2700
39 H39       1.7789     0.9724     0.0114 H      1 <0>       0.0900
40 H40       0.1694     1.2857    -0.6811 H      1 <0>       0.0600
41 H41       0.4444     1.5001     1.0644 H      1 <0>       0.0400
42 H42      -0.8282    -0.1019     2.7343 H      1 <0>       0.1000
43 H43      -1.3916     1.2016     1.6806 H      1 <0>       0.0700
44 H44      -2.9441    -0.7506     3.1917 H      1 <0>       0.0800
45 H45      -3.4909     0.7248     2.3798 H      1 <0>       0.0900
46 H46      -2.9457    -2.8981     2.0978 H      1 <0>       0.1100
47 H47      -3.1821    -3.0302     0.3331 H      1 <0>       0.0700
48 H48      -2.2319    -2.8320     3.3349 H      1 <0>       0.0700
49 H49      -0.6777    -2.7929     4.2017 H      1 <0>       0.0700
50 H50      -1.3399    -1.2999     3.4940 H      1 <0>       0.0800
51 H51       1.2935    -2.1676     1.2735 H      1 <0>       0.3800
52 H52       1.4838    -3.9822     0.7317 H      1 <0>       0.0600
53 H53       0.6514    -5.5445     0.5460 H      1 <0>       0.0600
54 H54      -0.0159    -4.0837    -0.2217 H      1 <0>       0.0500
55 H55      -0.1521    -4.5169     4.0326 H      1 <0>       0.0600
56 H56       0.5718    -5.7974     3.0304 H      1 <0>       0.0600
57 H57       1.4043    -4.2351     3.2161 H      1 <0>       0.0600
58 H58      -2.1482    -4.5731     0.8605 H      1 <0>       0.0500
59 H59      -1.5406    -5.9459     1.8168 H      1 <0>       0.0600
60 H60      -2.3020    -4.5598     2.6337 H      1 <0>       0.0600
61 H61      -6.6468     0.2399     0.8706 H      1 <0>       0.1000
62 H62      -5.9231     0.5343     2.4565 H      1 <0>       0.1200
63 H63      -6.0088     3.0934     1.4217 H      1 <0>       0.1400
64 H64      -4.4632     4.6940     0.4281 H      1 <0>       0.1400
65 H65      -1.5184     4.5012    -0.1570 H      1 <0>       0.4000
66 H66      -4.0326    -0.3922    -2.2022 H      1 <0>       0.1100
67 H67      -3.6498    -1.9851    -1.5407 H      1 <0>       0.0900
68 H68      -6.1029    -0.2675    -1.0387 H      1 <0>       0.1300
69 H69      -6.0238    -1.8862    -1.7400 H      1 <0>       0.1400
70 H70      -4.6579    -3.5291    -0.0510 H      1 <0>       0.1300
71 H71      -5.7099    -3.6295     1.3813 H      1 <0>       0.1300
72 H72      -7.6702    -3.3642    -0.5474 H      1 <0>       0.1300
73 H73      -6.9465    -4.6495    -2.6114 H      1 <0>       0.1100
74 H74      -5.2262    -4.7391    -1.9523 H      1 <0>       0.1000
75 H75      -6.0727    -5.9872     0.0873 H      1 <0>       0.1100
76 H76      -7.7929    -5.8976    -0.5718 H      1 <0>       0.1100
@<TRIPOS>BOND
1    1    2 1
2    1   39 1
3    1   40 1
4    1   41 1
5    2    3 1
6    3    8 1
7    3   36 1
8    3    4 1
9    4    5 1
10    4   42 1
11    4   43 1
12    5    6 1
13    5   44 1
14    5   45 1
15    6   27 1
16    6    7 1
17    6   17 1
18    7    8 1
19    7   46 1
20    7   47 1
21    8    9 1
22    8   10 1
23   10   11 1
24   10   12 1
25   10   13 1
26   11   48 1
27   11   49 1
28   11   50 1
29   12   51 1
30   13   14 1
31   13   15 1
32   13   16 1
33   14   52 1
34   14   53 1
35   14   54 1
36   15   55 1
37   15   56 1
38   15   57 1
39   16   58 1
40   16   59 1
41   16   60 1
42   17   18 1
43   17   30 1
44   17   19 1
45   19   20 1
46   19   61 1
47   19   62 1
48   20   26 ar
49   20   21 ar
50   21   22 ar
51   21   63 1
52   22   23 ar
53   22   64 1
54   23   24 1
55   23   25 ar
56   24   65 1
57   25   38 1
58   25   26 ar
59   26   27 1
60   27   28 1
61   27   36 1
62   28   29 1
63   28   66 1
64   28   67 1
65   29   30 1
66   29   68 1
67   29   69 1
68   30   31 1
69   30   32 1
70   32   33 1
71   32   70 1
72   32   71 1
73   33   35 1
74   33   34 1
75   33   72 1
76   34   35 1
77   34   73 1
78   34   74 1
79   35   75 1
80   35   76 1
81   36   37 1
82   36   38 1
