@<TRIPOS>MOLECULE
ZINC000007997897
43   45    0    0    0
SMALL
USER_CHARGES
NO_NAME
@<TRIPOS>ATOM
1 C1        0.1756     1.5239    -0.3518 C.3    1 <0>       0.0200
2 N2        0.0777     0.0673    -0.1883 N.3    1 <0>      -0.5300
3 C3        0.6610    -0.3593     1.0906 C.3    1 <0>       0.0700
4 C4        2.1452    -0.0990     1.0775 C.2    1 <0>      -0.1300
5 C5        2.7055     0.5929     2.0597 C.2    1 <0>      -0.1300
6 C6        1.9132     0.9558     3.2536 C.ar   1 <0>      -0.0600
7 C7        0.9882     0.0542     3.7812 C.ar   1 <0>      -0.1100
8 C8        0.2517     0.3990     4.8958 C.ar   1 <0>      -0.1200
9 C9        0.4284     1.6359     5.4898 C.ar   1 <0>      -0.1200
10 C10       1.3435     2.5346     4.9712 C.ar   1 <0>      -0.1200
11 C11       2.0911     2.1993     3.8611 C.ar   1 <0>      -0.1100
12 C12      -1.3153    -0.3834    -0.3081 C.3    1 <0>       0.0900
13 C13      -1.8006    -0.1472    -1.7151 C.ar   1 <0>      -0.0600
14 C14      -1.4650    -1.0492    -2.7387 C.ar   1 <0>      -0.0300
15 C15      -0.6770    -2.1843    -2.4819 C.ar   1 <0>      -0.0900
16 C16      -0.3722    -3.0363    -3.4983 C.ar   1 <0>      -0.1200
17 C17      -0.8296    -2.8009    -4.7938 C.ar   1 <0>      -0.1100
18 C18      -1.5943    -1.7122    -5.0799 C.ar   1 <0>      -0.1100
19 C19      -1.9306    -0.8101    -4.0560 C.ar   1 <0>      -0.0500
20 C20      -2.7185     0.3245    -4.3127 C.ar   1 <0>      -0.1100
21 C21      -3.0245     1.1761    -3.2958 C.ar   1 <0>      -0.1200
22 C22      -2.5710     0.9384    -1.9999 C.ar   1 <0>      -0.1100
23 H23       1.2237     1.8224    -0.3288 H      1 <0>       0.0700
24 H24      -0.2635     1.8126    -1.3067 H      1 <0>       0.0700
25 H25      -0.3607     2.0173     0.4588 H      1 <0>       0.0200
26 H26       0.2010     0.2010     1.9046 H      1 <0>       0.0600
27 H27       0.4801    -1.4245     1.2351 H      1 <0>       0.0800
28 H28       2.7525    -0.4761     0.2679 H      1 <0>       0.1200
29 H29       3.7410     0.8914     1.9876 H      1 <0>       0.1200
30 H30       0.8488    -0.9115     3.3180 H      1 <0>       0.1200
31 H31      -0.4646    -0.2979     5.3052 H      1 <0>       0.1200
32 H32      -0.1509     1.9013     6.3618 H      1 <0>       0.1200
33 H33       1.4763     3.4989     5.4391 H      1 <0>       0.1200
34 H34       2.8054     2.9016     3.4574 H      1 <0>       0.1200
35 H35      -1.3742    -1.4471    -0.0772 H      1 <0>       0.0900
36 H36      -1.9391     0.1749     0.3900 H      1 <0>       0.0500
37 H37      -0.3149    -2.3791    -1.4832 H      1 <0>       0.1300
38 H38       0.2335    -3.9078    -3.2983 H      1 <0>       0.1200
39 H39      -0.5729    -3.4928    -5.5824 H      1 <0>       0.1200
40 H40      -1.9410    -1.5424    -6.0886 H      1 <0>       0.1300
41 H41      -3.0792     0.5202    -5.3117 H      1 <0>       0.1300
42 H42      -3.6300     2.0477    -3.4959 H      1 <0>       0.1200
43 H43      -2.8284     1.6297    -1.2111 H      1 <0>       0.1200
@<TRIPOS>BOND
1    1    2 1
2    1   23 1
3    1   24 1
4    1   25 1
5    2    3 1
6    2   12 1
7    3    4 1
8    3   26 1
9    3   27 1
10    4    5 2
11    4   28 1
12    5    6 1
13    5   29 1
14    6   11 ar
15    6    7 ar
16    7    8 ar
17    7   30 1
18    8    9 ar
19    8   31 1
20    9   10 ar
21    9   32 1
22   10   11 ar
23   10   33 1
24   11   34 1
25   12   13 1
26   12   35 1
27   12   36 1
28   13   22 ar
29   13   14 ar
30   14   19 ar
31   14   15 ar
32   15   16 ar
33   15   37 1
34   16   17 ar
35   16   38 1
36   17   18 ar
37   17   39 1
38   18   19 ar
39   18   40 1
40   19   20 ar
41   20   21 ar
42   20   41 1
43   21   22 ar
44   21   42 1
45   22   43 1
