@<TRIPOS>MOLECULE
ZINC000003945984
61   64    0    0    0
SMALL
USER_CHARGES
NO_NAME
@<TRIPOS>ATOM
1 C1       -0.7532     1.9426    -1.2497 C.3    1 <0>      -0.1400
2 C2       -0.6685     0.4153    -1.2155 C.3    1 <0>      -0.1800
3 C3       -2.0557    -0.1622    -1.1002 C.2    1 <0>       0.3700
4 O4       -3.0132     0.5720    -1.0506 O.2    1 <0>      -0.4400
5 C5       -2.2479    -1.6560    -1.0470 C.3    1 <0>      -0.0900
6 C6       -1.8498    -2.2888    -2.3819 C.3    1 <0>      -0.1400
7 C7       -1.4129    -2.2637     0.1076 C.3    1 <0>      -0.0800
8 H8       -0.9126    -1.4716     0.6646 H      1 <0>       0.0700
9 C9       -0.3805    -3.2450    -0.4511 C.3    1 <0>      -0.1500
10 C10      -2.4165    -3.0106     1.0280 C.3    1 <0>      -0.1100
11 C11      -3.5853    -3.3160     0.0849 C.3    1 <0>      -0.0800
12 H12      -3.3306    -4.1415    -0.5798 H      1 <0>       0.0700
13 C13      -4.9242    -3.5708     0.7532 C.3    1 <0>      -0.0800
14 H14      -5.2027    -2.7087     1.3592 H      1 <0>       0.1000
15 C15      -4.8353    -4.8160     1.6373 C.3    1 <0>      -0.1100
16 C16      -6.1775    -5.0480     2.3385 C.3    1 <0>      -0.1000
17 C17      -7.2575    -5.1236     1.2755 C.2    1 <0>      -0.0200
18 C18      -8.0864    -6.1584     1.2744 C.2    1 <0>      -0.2300
19 C19      -9.1329    -6.2772     0.2473 C.2    1 <0>       0.4100
20 O20      -9.9208    -7.2043     0.2661 O.2    1 <0>      -0.4600
21 C21      -9.2055    -5.2484    -0.8039 C.2    1 <0>      -0.2200
22 C22      -8.3719    -4.2204    -0.7791 C.2    1 <0>      -0.0600
23 C23      -7.3355    -4.0119     0.2714 C.3    1 <0>      -0.0100
24 C24      -7.6838    -2.7262     1.0240 C.3    1 <0>      -0.1300
25 C25      -5.9616    -3.7780    -0.3618 C.3    1 <0>      -0.0500
26 H26      -5.6778    -4.6585    -0.9382 H      1 <0>       0.0800
27 C27      -6.0337    -2.5706    -1.2921 C.3    1 <0>       0.1100
28 H28      -6.7105    -2.7965    -2.1161 H      1 <0>       0.0600
29 O29      -6.5429    -1.4511    -0.5644 O.3    1 <0>      -0.5400
30 C30      -4.6527    -2.2100    -1.8621 C.3    1 <0>      -0.1300
31 C31      -3.6986    -1.9906    -0.7152 C.3    1 <0>      -0.0400
32 C32      -4.2713    -0.9438     0.2425 C.3    1 <0>      -0.1500
33 H33       0.2501     2.3603    -1.3330 H      1 <0>       0.0600
34 H34      -1.3489     2.2543    -2.1076 H      1 <0>       0.0600
35 H35      -1.2210     2.3012    -0.3328 H      1 <0>       0.0600
36 H36      -0.2007     0.0567    -2.1323 H      1 <0>       0.1000
37 H37      -0.0727     0.1036    -0.3576 H      1 <0>       0.1000
38 H38      -0.8054    -2.0610    -2.5948 H      1 <0>       0.0600
39 H39      -1.9818    -3.3693    -2.3254 H      1 <0>       0.0700
40 H40      -2.4787    -1.8870    -3.1763 H      1 <0>       0.0600
41 H41       0.2852    -2.7207    -1.1368 H      1 <0>       0.0600
42 H42       0.2010    -3.6664     0.3689 H      1 <0>       0.0600
43 H43      -0.8922    -4.0468    -0.9833 H      1 <0>       0.0600
44 H44      -1.9775    -3.9326     1.4093 H      1 <0>       0.0700
45 H45      -2.7397    -2.3685     1.8474 H      1 <0>       0.0700
46 H46      -4.5936    -5.6819     1.0210 H      1 <0>       0.0600
47 H47      -4.0551    -4.6748     2.3853 H      1 <0>       0.0700
48 H48      -6.1443    -5.9837     2.8967 H      1 <0>       0.0800
49 H49      -6.3862    -4.2210     3.0171 H      1 <0>       0.0900
50 H50      -7.9923    -6.9206     2.0338 H      1 <0>       0.1400
51 H51      -9.9373    -5.3326    -1.5937 H      1 <0>       0.1400
52 H52      -8.4475    -3.4875    -1.5687 H      1 <0>       0.1300
53 H53      -8.4419    -2.9402     1.7774 H      1 <0>       0.0400
54 H54      -6.7894    -2.3355     1.5093 H      1 <0>       0.0800
55 H55      -8.0684    -1.9868     0.3215 H      1 <0>       0.1000
56 H56      -6.6186    -0.6424    -1.0892 H      1 <0>       0.3700
57 H57      -4.2694    -3.0382    -2.4580 H      1 <0>       0.0700
58 H58      -4.7276    -1.3128    -2.4766 H      1 <0>       0.0700
59 H59      -5.1233    -1.3662     0.7752 H      1 <0>       0.0900
60 H60      -3.5047    -0.6488     0.9590 H      1 <0>       0.0300
61 H61      -4.5940    -0.0706    -0.3245 H      1 <0>       0.0800
@<TRIPOS>BOND
1    1    2 1
2    1   33 1
3    1   34 1
4    1   35 1
5    2    3 1
6    2   36 1
7    2   37 1
8    3    4 2
9    3    5 1
10    5   31 1
11    5    6 1
12    5    7 1
13    6   38 1
14    6   39 1
15    6   40 1
16    7    8 1
17    7    9 1
18    7   10 1
19    9   41 1
20    9   42 1
21    9   43 1
22   10   11 1
23   10   44 1
24   10   45 1
25   11   12 1
26   11   31 1
27   11   13 1
28   13   14 1
29   13   25 1
30   13   15 1
31   15   16 1
32   15   46 1
33   15   47 1
34   16   17 1
35   16   48 1
36   16   49 1
37   17   23 1
38   17   18 2
39   18   19 1
40   18   50 1
41   19   20 2
42   19   21 1
43   21   22 2
44   21   51 1
45   22   23 1
46   22   52 1
47   23   24 1
48   23   25 1
49   24   53 1
50   24   54 1
51   24   55 1
52   25   26 1
53   25   27 1
54   27   28 1
55   27   29 1
56   27   30 1
57   29   56 1
58   30   31 1
59   30   57 1
60   30   58 1
61   31   32 1
62   32   59 1
63   32   60 1
64   32   61 1
