@<TRIPOS>MOLECULE
ZINC000000596731
57    58    1     0     0
SMALL
USER_CHARGES
@<TRIPOS>ATOM
1      C1     -0.7659    1.4546   -0.4906 C.3      1 ZINC000000596731   -0.0500
2      N2     -0.4735    0.0207   -0.6190 N.4      1 ZINC000000596731   -0.3900
3      H3     -1.3384   -0.4936   -0.6933 H        1 ZINC000000596731    0.4300
4      C4      0.3372   -0.2079   -1.8225 C.3      1 ZINC000000596731    0.0000
5      C5      0.5107   -1.7120   -2.0424 C.3      1 ZINC000000596731    0.0200
6      O6     -0.7600   -2.3019   -2.3243 O.3      1 ZINC000000596731   -0.3300
7      C7     -0.7823   -3.6435   -2.5464 C.ar     1 ZINC000000596731    0.1000
8      C8      0.3944   -4.3754   -2.4878 C.ar     1 ZINC000000596731   -0.1800
9      C9      0.3726   -5.7379   -2.7127 C.ar     1 ZINC000000596731   -0.0900
10     C10    -0.8279   -6.3750   -2.9975 C.ar     1 ZINC000000596731    0.1200
11     N11    -0.8510   -7.7556   -3.2251 N.am     1 ZINC000000596731   -1.0600
12     S12    -1.9999   -8.6964   -2.4923 S.o2     1 ZINC000000596731    2.6100
13     C13    -1.6961   -8.4813   -0.7169 C.3      1 ZINC000000596731   -0.6700
14     O14    -3.2333   -8.0961   -2.8634 O.2      1 ZINC000000596731   -0.9500
15     O15    -1.6786  -10.0203   -2.8963 O.2      1 ZINC000000596731   -0.9400
16     C16    -2.0055   -5.6415   -3.0560 C.ar     1 ZINC000000596731   -0.1100
17     C17    -1.9826   -4.2799   -2.8256 C.ar     1 ZINC000000596731   -0.1200
18     C18     0.2675   -0.4358    0.5645 C.3      1 ZINC000000596731   -0.0100
19     C19    -0.6234   -0.3136    1.8024 C.3      1 ZINC000000596731   -0.1000
20     C20     0.1367   -0.7818    3.0165 C.ar     1 ZINC000000596731   -0.1200
21     C21     0.0878   -2.1123    3.3902 C.ar     1 ZINC000000596731   -0.0900
22     C22     0.7832   -2.5448    4.5023 C.ar     1 ZINC000000596731   -0.1300
23     C23     1.5323   -1.6417    5.2457 C.ar     1 ZINC000000596731    0.1600
24     N24     2.2372   -2.0758    6.3707 N.am     1 ZINC000000596731   -1.0600
25     S25     3.8080   -1.6028    6.5970 S.o2     1 ZINC000000596731    2.6100
26     C26     4.6924   -2.2672    5.1594 C.3      1 ZINC000000596731   -0.6700
27     O27     3.7584   -0.1838    6.5399 O.2      1 ZINC000000596731   -0.9500
28     O28     4.2088   -2.2747    7.7833 O.2      1 ZINC000000596731   -0.9400
29     C29     1.5793   -0.3058    4.8675 C.ar     1 ZINC000000596731   -0.1500
30     C30     0.8861    0.1188    3.7510 C.ar     1 ZINC000000596731   -0.0800
31     H31     0.1611    2.0001   -0.3143 H        1 ZINC000000596731    0.1200
32     H32    -1.2301    1.8143   -1.4089 H        1 ZINC000000596731    0.1300
33     H33    -1.4457    1.6132    0.3465 H        1 ZINC000000596731    0.1300
34     H34    -0.1630    0.2303   -2.6861 H        1 ZINC000000596731    0.1400
35     H35     1.3154    0.2559   -1.6952 H        1 ZINC000000596731    0.1500
36     H36     1.1842   -1.8811   -2.8826 H        1 ZINC000000596731    0.1100
37     H37     0.9300   -2.1646   -1.1438 H        1 ZINC000000596731    0.0900
38     H38     1.3281   -3.8796   -2.2666 H        1 ZINC000000596731    0.1300
39     H39     1.2890   -6.3076   -2.6674 H        1 ZINC000000596731    0.1400
40     H40    -0.1940   -8.1614   -3.8121 H        1 ZINC000000596731    0.4300
41     H41    -1.8910   -7.4459   -0.4377 H        1 ZINC000000596731    0.1300
42     H42    -2.3564   -9.1401   -0.1528 H        1 ZINC000000596731    0.1400
43     H43    -0.6584   -8.7288   -0.4932 H        1 ZINC000000596731    0.1300
44     H44    -2.9396   -6.1362   -3.2775 H        1 ZINC000000596731    0.1700
45     H45    -2.8985   -3.7093   -2.8707 H        1 ZINC000000596731    0.1400
46     H46     0.5616   -1.4767    0.4299 H        1 ZINC000000596731    0.1300
47     H47     1.1577    0.1794    0.6954 H        1 ZINC000000596731    0.1300
48     H48    -0.9175    0.7273    1.9370 H        1 ZINC000000596731    0.1000
49     H49    -1.5136   -0.9287    1.6715 H        1 ZINC000000596731    0.1000
50     H50    -0.4951   -2.8139    2.8120 H        1 ZINC000000596731    0.1300
51     H51     0.7443   -3.5840    4.7938 H        1 ZINC000000596731    0.1400
52     H52     1.8066   -2.6543    7.0194 H        1 ZINC000000596731    0.4300
53     H53     4.3294   -1.7820    4.2533 H        1 ZINC000000596731    0.1300
54     H54     5.7601   -2.0778    5.2702 H        1 ZINC000000596731    0.1400
55     H55     4.5191   -3.3412    5.0907 H        1 ZINC000000596731    0.1300
56     H56     2.1605    0.3990    5.4435 H        1 ZINC000000596731    0.1600
57     H57     0.9221    1.1573    3.4564 H        1 ZINC000000596731    0.1300
@<TRIPOS>BOND
1     1     2     1
2     1     31    1
3     1     32    1
4     1     33    1
5     2     3     1
6     2     4     1
7     2     18    1
8     4     5     1
9     4     34    1
10    4     35    1
11    5     6     1
12    5     36    1
13    5     37    1
14    6     7     1
15    7     17    ar
16    7     8     ar
17    8     9     ar
18    8     38    1
19    9     10    ar
20    9     39    1
21    10    11    1
22    10    16    ar
23    11    12    am
24    11    40    1
25    12    13    1
26    12    14    2
27    12    15    2
28    13    41    1
29    13    42    1
30    13    43    1
31    16    17    ar
32    16    44    1
33    17    45    1
34    18    19    1
35    18    46    1
36    18    47    1
37    19    20    1
38    19    48    1
39    19    49    1
40    20    30    ar
41    20    21    ar
42    21    22    ar
43    21    50    1
44    22    23    ar
45    22    51    1
46    23    24    1
47    23    29    ar
48    24    25    am
49    24    52    1
50    25    26    1
51    25    27    2
52    25    28    2
53    26    53    1
54    26    54    1
55    26    55    1
56    29    30    ar
57    29    56    1
58    30    57    1
@<TRIPOS>SUBSTRUCTURE
1   ZINC000000596731 1     RESIDUE    1   A     ZIN   1
