@<TRIPOS>MOLECULE
ZINC000019875504
26   27    0    0    0
SMALL
USER_CHARGES
NO_NAME
@<TRIPOS>ATOM
1 C1        0.0180    -1.1779    -0.0044 C.1    1 <0>      -0.1900
2 C2        0.0021    -0.0041     0.0020 C.1    1 <0>      -0.1900
3 C3       -0.0179     1.4678     0.0101 C.3    1 <0>       0.1600
4 N4        1.3603     1.9762    -0.0003 N.3    1 <0>      -0.6700
5 C5        1.3795     3.4451     0.0074 C.3    1 <0>       0.1300
6 H6        0.5344     3.8368    -0.5587 H      1 <0>       0.0900
7 C7        2.7071     3.9664    -0.5827 C.3    1 <0>      -0.1100
8 C8        3.5882     4.1266     0.6744 C.3    1 <0>      -0.0900
9 C9        2.6168     4.3550     1.8126 C.ar   1 <0>      -0.0800
10 C10       2.8266     4.8645     3.0827 C.ar   1 <0>      -0.1100
11 C11       1.7722     4.9825     3.9674 C.ar   1 <0>      -0.1100
12 C12       0.5033     4.5910     3.5842 C.ar   1 <0>      -0.1200
13 C13       0.2919     4.0824     2.3172 C.ar   1 <0>      -0.1000
14 C14       1.3449     3.9634     1.4292 C.ar   1 <0>      -0.1400
15 H15       0.0322    -2.2278    -0.0102 H      1 <0>       0.2200
16 H16      -0.5451     1.8289    -0.8729 H      1 <0>       0.1000
17 H17      -0.5281     1.8193     0.9069 H      1 <0>       0.0600
18 H18       1.8890     1.6036     0.7740 H      1 <0>       0.3500
19 H19       3.1391     3.2374    -1.2683 H      1 <0>       0.0900
20 H20       2.5605     4.9262    -1.0780 H      1 <0>       0.0800
21 H21       4.1678     3.2200     0.8480 H      1 <0>       0.0800
22 H22       4.2509     4.9850     0.5648 H      1 <0>       0.0800
23 H23       3.8180     5.1702     3.3830 H      1 <0>       0.1200
24 H24       1.9391     5.3806     4.9573 H      1 <0>       0.1300
25 H25      -0.3222     4.6823     4.2746 H      1 <0>       0.1200
26 H26      -0.6998     3.7764     2.0186 H      1 <0>       0.1200
@<TRIPOS>BOND
1    1    2 3
2    1   15 1
3    2    3 1
4    3    4 1
5    3   16 1
6    3   17 1
7    4    5 1
8    4   18 1
9    5    6 1
10    5   14 1
11    5    7 1
12    7    8 1
13    7   19 1
14    7   20 1
15    8    9 1
16    8   21 1
17    8   22 1
18    9   14 ar
19    9   10 ar
20   10   11 ar
21   10   23 1
22   11   12 ar
23   11   24 1
24   12   13 ar
25   12   25 1
26   13   14 ar
27   13   26 1
