@<TRIPOS>MOLECULE
ZINC000000897085
43   45    0    0    0
SMALL
USER_CHARGES
NO_NAME
@<TRIPOS>ATOM
1 O1       -0.0173     1.4248     0.0099 O.3    1 <0>      -0.5400
2 C2        0.0021    -0.0041     0.0020 C.3    1 <0>       0.1400
3 H3       -1.0205    -0.3814     0.0098 H      1 <0>       0.1500
4 C4        0.7074    -0.4901    -1.2379 C.ar   1 <0>      -0.0600
5 C5        0.4321    -1.7613    -1.7753 C.ar   1 <0>      -0.0700
6 C6       -0.5057    -2.6198    -1.1790 C.ar   1 <0>      -0.0900
7 C7       -0.7443    -3.8418    -1.7295 C.ar   1 <0>      -0.0800
8 C8       -0.0701    -4.2529    -2.8778 C.ar   1 <0>      -0.0300
9 C9        0.8448    -3.4466    -3.4815 C.ar   1 <0>      -0.1400
10 C10       1.5616    -3.9126    -4.7225 C.3    1 <0>       0.5200
11 F11       1.1221    -5.1972    -5.0603 F      1 <0>      -0.1700
12 F12       1.2884    -3.0342    -5.7765 F      1 <0>      -0.1600
13 F13       2.9397    -3.9393    -4.4829 F      1 <0>      -0.1600
14 C14       1.1189    -2.1770    -2.9430 C.ar   1 <0>       0.1600
15 N15       2.0116    -1.3631    -3.5148 N.ar   1 <0>      -0.4000
16 C16       2.2702    -0.1780    -3.0172 C.ar   1 <0>       0.0900
17 C17       3.2857     0.6996    -3.7024 C.3    1 <0>       0.5200
18 F18       3.7135     0.0834    -4.8833 F      1 <0>      -0.1500
19 F19       2.7050     1.9358    -4.0054 F      1 <0>      -0.1600
20 F20       4.3814     0.8944    -2.8547 F      1 <0>      -0.1700
21 C21       1.6278     0.2933    -1.8747 C.ar   1 <0>      -0.1100
22 C22       0.7421    -0.5109     1.2415 C.3    1 <0>      -0.0100
23 H23       0.8344    -1.5958     1.1908 H      1 <0>       0.1500
24 C24       2.1365     0.1171     1.2947 C.3    1 <0>      -0.1500
25 C25       2.8732    -0.3933     2.5365 C.3    1 <0>      -0.1300
26 C26       2.0421    -0.0675     3.7808 C.3    1 <0>      -0.1500
27 C27       0.6512    -0.6886     3.6356 C.3    1 <0>      -0.0100
28 N28      -0.0109    -0.1404     2.4458 N.4    1 <0>      -0.5000
29 H29      -0.0537     0.8651     2.5192 H      1 <0>       0.4300
30 H30      -0.9468    -0.5120     2.3817 H      1 <0>       0.4300
31 H31       0.8606     1.8301     0.0037 H      1 <0>       0.3900
32 H32      -1.0343    -2.3126    -0.2887 H      1 <0>       0.1400
33 H33      -1.4655    -4.5016    -1.2701 H      1 <0>       0.1600
34 H34      -0.2768    -5.2273    -3.2951 H      1 <0>       0.1600
35 H35       1.8622     1.2744    -1.4886 H      1 <0>       0.1600
36 H36       2.6948    -0.1602     0.4006 H      1 <0>       0.1100
37 H37       2.0453     1.2020     1.3458 H      1 <0>       0.0900
38 H38       3.0098    -1.4721     2.4616 H      1 <0>       0.0800
39 H39       3.8453     0.0942     2.6095 H      1 <0>       0.1000
40 H40       2.5331    -0.4767     4.6638 H      1 <0>       0.1200
41 H41       1.9490     1.0137     3.8835 H      1 <0>       0.0900
42 H42       0.7455    -1.7697     3.5332 H      1 <0>       0.1300
43 H43       0.0570    -0.4587     4.5199 H      1 <0>       0.1400
@<TRIPOS>BOND
1    1    2 1
2    1   31 1
3    2    3 1
4    2    4 1
5    2   22 1
6    4   21 ar
7    4    5 ar
8    5   14 ar
9    5    6 ar
10    6    7 ar
11    6   32 1
12    7    8 ar
13    7   33 1
14    8    9 ar
15    8   34 1
16    9   10 1
17    9   14 ar
18   10   11 1
19   10   12 1
20   10   13 1
21   14   15 ar
22   15   16 ar
23   16   17 1
24   16   21 ar
25   17   18 1
26   17   19 1
27   17   20 1
28   21   35 1
29   22   23 1
30   22   28 1
31   22   24 1
32   24   25 1
33   24   36 1
34   24   37 1
35   25   26 1
36   25   38 1
37   25   39 1
38   26   27 1
39   26   40 1
40   26   41 1
41   27   28 1
42   27   42 1
43   27   43 1
44   28   29 1
45   28   30 1
