@<TRIPOS>MOLECULE
ZINC000001530600
30    30    1     0     0
SMALL
USER_CHARGES
@<TRIPOS>ATOM
1      N1      0.0526    1.6810   -0.7102 N.pl3    1 ZINC000001530600   -0.8300
2      C2     -0.0226    0.3217   -0.5128 C.2      1 ZINC000001530600    0.5100
3      N3     -1.2038   -0.2782   -0.4445 N.2      1 ZINC000001530600   -0.6000
4      C4     -1.2885   -1.5936   -0.2542 C.2      1 ZINC000001530600    0.6800
5      O5     -2.3865   -2.1219   -0.1954 O.2      1 ZINC000001530600   -0.5500
6      N6     -0.1827   -2.3497   -0.1261 N.am     1 ZINC000001530600   -0.5200
7      C7     -0.3078   -3.7944    0.0819 C.3      1 ZINC000001530600    0.1200
8      C8     -0.3279   -4.5049   -1.2729 C.3      1 ZINC000001530600    0.0400
9      H9      0.5980   -4.2937   -1.8078 H        1 ZINC000001530600    0.1200
10     C10    -0.4586   -6.0138   -1.0557 C.3      1 ZINC000001530600    0.0600
11     O11    -1.6148   -6.2821   -0.2600 O.3      1 ZINC000001530600   -0.5600
12     O12    -1.4387   -4.0362   -2.0401 O.3      1 ZINC000001530600   -0.3300
13     C13    -1.2459   -4.1208   -3.4535 C.3      1 ZINC000001530600   -0.5400
14     P14    -0.1350   -2.7813   -3.9966 P.3      1 ZINC000001530600    2.1800
15     O15    -0.7007   -1.4040   -3.5096 O.co2    1 ZINC000001530600   -1.1500
16     O16     1.2905   -3.0056   -3.3866 O.co2    1 ZINC000001530600   -1.1700
17     O17    -0.0401   -2.7834   -5.5604 O.co2    1 ZINC000001530600   -1.1900
18     C18     1.0528   -1.7784   -0.1894 C.2      1 ZINC000001530600    0.2200
19     C19     1.1556   -0.4429   -0.3878 C.2      1 ZINC000001530600   -0.3100
20     H20     0.9179    2.1162   -0.7637 H        1 ZINC000001530600    0.4000
21     H21    -0.7595    2.2037   -0.7998 H        1 ZINC000001530600    0.4000
22     H22     0.5394   -4.1519    0.6671 H        1 ZINC000001530600    0.0800
23     H23    -1.2338   -4.0056    0.6168 H        1 ZINC000001530600    0.1000
24     H24    -0.5573   -6.5125   -2.0199 H        1 ZINC000001530600    0.0400
25     H25     0.4291   -6.3853   -0.5437 H        1 ZINC000001530600    0.0500
26     H26    -1.7604   -7.2213   -0.0818 H        1 ZINC000001530600    0.3600
27     H27    -0.8018   -5.0846   -3.7026 H        1 ZINC000001530600    0.0100
28     H28    -2.2072   -4.0226   -3.9579 H        1 ZINC000001530600    0.0600
29     H29     1.9405   -2.3849   -0.0866 H        1 ZINC000001530600    0.1600
30     H30     2.1248    0.0305   -0.4416 H        1 ZINC000001530600    0.1400
@<TRIPOS>BOND
1     1     2     1
2     1     20    1
3     1     21    1
4     2     19    1
5     2     3     2
6     3     4     1
7     4     5     2
8     4     6     am
9     6     7     1
10    6     18    1
11    7     8     1
12    7     22    1
13    7     23    1
14    8     9     1
15    8     10    1
16    8     12    1
17    10    11    1
18    10    24    1
19    10    25    1
20    11    26    1
21    12    13    1
22    13    14    1
23    13    27    1
24    13    28    1
25    14    15    ar
26    14    16    ar
27    14    17    ar
28    18    19    2
29    18    29    1
30    19    30    1
@<TRIPOS>SUBSTRUCTURE
1   ZINC000001530600 1     RESIDUE    1   A     ZIN   1
