@<TRIPOS>MOLECULE
ZINC000012503177
58   58    0    0    0
SMALL
USER_CHARGES
NO_NAME
@<TRIPOS>ATOM
1 C1        2.5829    -2.7854     2.2501 C.3    1 <0>      -0.1500
2 C2        1.5984    -2.6994     1.0821 C.3    1 <0>      -0.1300
3 C3        0.2590    -3.3109     1.4980 C.3    1 <0>      -0.1200
4 C4       -0.7256    -3.2250     0.3300 C.3    1 <0>      -0.1200
5 C5       -2.0649    -3.8365     0.7460 C.3    1 <0>      -0.1500
6 C6       -3.0495    -3.7506    -0.4220 C.3    1 <0>       0.1200
7 H7       -2.6113    -4.2215    -1.3020 H      1 <0>       0.1100
8 O8       -3.3322    -2.3791    -0.7067 O.3    1 <0>      -0.5500
9 C9       -4.3269    -4.4613    -0.0556 C.2    1 <0>      -0.1800
10 C10      -4.6771    -5.5500    -0.6943 C.2    1 <0>      -0.1300
11 C11      -3.7476    -6.1581    -1.7128 C.3    1 <0>      -0.0600
12 H12      -2.7693    -5.6793    -1.6709 H      1 <0>       0.1100
13 C13      -3.6162    -7.6857    -1.4865 C.3    1 <0>       0.1100
14 H14      -4.5701    -8.1159    -1.1812 H      1 <0>       0.0700
15 O15      -2.6007    -7.9712    -0.5224 O.3    1 <0>      -0.5500
16 C16      -3.2069    -8.1943    -2.8911 C.3    1 <0>      -0.2200
17 C17      -4.0061    -7.3332    -3.8530 C.2    1 <0>       0.3700
18 O18      -4.3123    -7.6204    -4.9853 O.2    1 <0>      -0.4300
19 C19      -4.3468    -6.0441    -3.1299 C.3    1 <0>      -0.1400
20 H20      -5.4287    -5.9272    -3.0665 H      1 <0>       0.1100
21 C21      -3.7348    -4.8524    -3.8690 C.3    1 <0>      -0.1100
22 C22      -4.4095    -4.6974    -5.2334 C.3    1 <0>      -0.1300
23 C23      -3.7975    -3.5058    -5.9726 C.3    1 <0>      -0.1200
24 C24      -4.4722    -3.3508    -7.3370 C.3    1 <0>      -0.1200
25 C25      -3.8602    -2.1591    -8.0762 C.3    1 <0>      -0.0900
26 C26      -4.5349    -2.0042    -9.4406 C.3    1 <0>      -0.1800
27 C27      -3.9321    -0.8304   -10.1686 C.2    1 <0>       0.4900
28 O28      -3.0451    -0.1783    -9.6447 O.co2  1 <0>      -0.7000
29 O29      -4.3315    -0.5329   -11.2815 O.co2  1 <0>      -0.7100
30 H30       3.5371    -2.3497     1.9538 H      1 <0>       0.0500
31 H31       2.1829    -2.2378     3.1035 H      1 <0>       0.0500
32 H32       2.7301    -3.8298     2.5251 H      1 <0>       0.0500
33 H33       1.4512    -1.6550     0.8071 H      1 <0>       0.0600
34 H34       1.9984    -3.2470     0.2287 H      1 <0>       0.0600
35 H35       0.4062    -4.3554     1.7731 H      1 <0>       0.0600
36 H36      -0.1410    -2.7634     2.3514 H      1 <0>       0.0600
37 H37      -0.8728    -2.1806     0.0550 H      1 <0>       0.0700
38 H38      -0.3256    -3.7725    -0.5234 H      1 <0>       0.0600
39 H39      -1.9177    -4.8809     1.0210 H      1 <0>       0.0700
40 H40      -2.4649    -3.2890     1.5994 H      1 <0>       0.0600
41 H41      -3.7930    -1.9162     0.0064 H      1 <0>       0.3700
42 H42      -4.9536    -4.0730     0.7337 H      1 <0>       0.1100
43 H43      -5.6320    -6.0118    -0.4911 H      1 <0>       0.1100
44 H44      -2.4800    -8.9142    -0.3458 H      1 <0>       0.3800
45 H45      -2.1381    -8.0521    -3.0509 H      1 <0>       0.1100
46 H46      -3.4739    -9.2445    -3.0084 H      1 <0>       0.0900
47 H47      -3.8859    -3.9453    -3.2838 H      1 <0>       0.0800
48 H48      -2.6670    -5.0210    -4.0087 H      1 <0>       0.0600
49 H49      -4.2584    -5.6045    -5.8186 H      1 <0>       0.0700
50 H50      -5.4773    -4.5289    -5.0937 H      1 <0>       0.0600
51 H51      -3.9486    -2.5987    -5.3874 H      1 <0>       0.0600
52 H52      -2.7297    -3.6743    -6.1123 H      1 <0>       0.0600
53 H53      -4.3211    -4.2579    -7.9222 H      1 <0>       0.0500
54 H54      -5.5400    -3.1822    -7.1973 H      1 <0>       0.0500
55 H55      -4.0113    -1.2521    -7.4910 H      1 <0>       0.0600
56 H56      -2.7924    -2.3277    -8.2159 H      1 <0>       0.0600
57 H57      -4.3838    -2.9112   -10.0258 H      1 <0>       0.0500
58 H58      -5.6027    -1.8356    -9.3009 H      1 <0>       0.0500
@<TRIPOS>BOND
1    1    2 1
2    1   30 1
3    1   31 1
4    1   32 1
5    2    3 1
6    2   33 1
7    2   34 1
8    3    4 1
9    3   35 1
10    3   36 1
11    4    5 1
12    4   37 1
13    4   38 1
14    5    6 1
15    5   39 1
16    5   40 1
17    6    7 1
18    6    8 1
19    6    9 1
20    8   41 1
21    9   10 2
22    9   42 1
23   10   11 1
24   10   43 1
25   11   12 1
26   11   19 1
27   11   13 1
28   13   14 1
29   13   15 1
30   13   16 1
31   15   44 1
32   16   17 1
33   16   45 1
34   16   46 1
35   17   18 2
36   17   19 1
37   19   20 1
38   19   21 1
39   21   22 1
40   21   47 1
41   21   48 1
42   22   23 1
43   22   49 1
44   22   50 1
45   23   24 1
46   23   51 1
47   23   52 1
48   24   25 1
49   24   53 1
50   24   54 1
51   25   26 1
52   25   55 1
53   25   56 1
54   26   27 1
55   26   57 1
56   26   58 1
57   27   28 ar
58   27   29 ar
