@<TRIPOS>MOLECULE
ZINC000003872738
24    24    1     0     0
SMALL
USER_CHARGES
@<TRIPOS>ATOM
1      N1     -0.0757    1.2281   -0.6219 N.pl3    1 ZINC000003872738   -0.7800
2      C2     -0.0173   -0.0343   -0.2015 C.cat    1 ZINC000003872738    0.7400
3      N3      1.1612   -0.6440   -0.0864 N.pl3    1 ZINC000003872738   -0.8100
4      H4      1.9769   -0.1686   -0.3088 H        1 ZINC000003872738    0.4300
5      H5      1.2037   -1.5634    0.2198 H        1 ZINC000003872738    0.4300
6      N6     -1.1703   -0.7062    0.1129 N.pl3    1 ZINC000003872738   -0.6300
7      C7     -2.3832   -0.0330    0.1283 C.2      1 ZINC000003872738    0.4100
8      O8     -2.4166    1.3074   -0.0677 O.3      1 ZINC000003872738   -0.6700
9      C9     -3.5256   -0.7106    0.3378 C.2      1 ZINC000003872738   -0.4100
10     C10    -4.8139    0.0045    0.3542 C.ar     1 ZINC000003872738    0.0700
11     C11    -4.9697    1.1542    1.1347 C.ar     1 ZINC000003872738   -0.0200
12     Cl12   -3.6447    1.7450    2.0881 Cl       1 ZINC000003872738   -0.0500
13     C13    -6.1797    1.8184    1.1447 C.ar     1 ZINC000003872738   -0.1100
14     C14    -7.2370    1.3491    0.3854 C.ar     1 ZINC000003872738   -0.1300
15     C15    -7.0908    0.2120   -0.3896 C.ar     1 ZINC000003872738   -0.1100
16     C16    -5.8852   -0.4598   -0.4151 C.ar     1 ZINC000003872738   -0.0500
17     Cl17   -5.7040   -1.8858   -1.3886 Cl       1 ZINC000003872738   -0.0800
18     H18     0.6555    1.8367   -0.4326 H        1 ZINC000003872738    0.4200
19     H19    -0.8477    1.5378   -1.1209 H        1 ZINC000003872738    0.4500
20     H20    -1.1380   -1.6523    0.3246 H        1 ZINC000003872738    0.4200
21     H21    -3.4989   -1.7789    0.4941 H        1 ZINC000003872738    0.1000
22     H22    -6.3015    2.7066    1.7470 H        1 ZINC000003872738    0.1300
23     H23    -8.1815    1.8728    0.3979 H        1 ZINC000003872738    0.1300
24     H24    -7.9208   -0.1483   -0.9792 H        1 ZINC000003872738    0.1300
@<TRIPOS>BOND
1     1     2     ar
2     1     18    1
3     1     19    1
4     2     3     ar
5     2     6     ar
6     3     4     1
7     3     5     1
8     6     7     1
9     6     20    1
10    7     8     1
11    7     9     2
12    9     10    1
13    9     21    1
14    10    16    ar
15    10    11    ar
16    11    12    1
17    11    13    ar
18    13    14    ar
19    13    22    1
20    14    15    ar
21    14    23    1
22    15    16    ar
23    15    24    1
24    16    17    1
@<TRIPOS>SUBSTRUCTURE
1   ZINC000003872738 1     RESIDUE    1   A     ZIN   1
