@<TRIPOS>MOLECULE
ZINC000001481833
30    33    1     0     0
SMALL
USER_CHARGES
@<TRIPOS>ATOM
1      C1     -0.0157    1.3094    0.0092 C.ar     1 ZINC000001481833    0.1000
2      C2      1.1749    2.0388    0.0018 C.ar     1 ZINC000001481833    0.1000
3      N3      2.3369    1.4263   -0.0117 N.ar     1 ZINC000001481833   -0.4200
4      C4      2.3815    0.0899   -0.0173 C.ar     1 ZINC000001481833    0.0800
5      C5      3.6084   -0.5962   -0.0256 C.ar     1 ZINC000001481833   -0.0400
6      C6      3.6229   -1.9562   -0.0318 C.ar     1 ZINC000001481833   -0.1200
7      C7      2.4311   -2.6863   -0.0320 C.ar     1 ZINC000001481833   -0.1200
8      C8      1.2261   -2.0555   -0.0231 C.ar     1 ZINC000001481833   -0.0400
9      C9      1.1724   -0.6508   -0.0131 C.ar     1 ZINC000001481833    0.0800
10     N10     0.0021   -0.0041    0.0020 N.ar     1 ZINC000001481833   -0.4200
11     C11     2.7730   -4.1701   -0.0427 C.3      1 ZINC000001481833   -0.0600
12     H12     2.0344   -4.7769   -0.5665 H        1 ZINC000001481833    0.1400
13     C13     4.1763   -4.1960   -0.7144 C.3      1 ZINC000001481833   -0.1200
14     C14     4.7892   -2.9351   -0.0393 C.3      1 ZINC000001481833   -0.0600
15     H15     5.6672   -2.5526   -0.5599 H        1 ZINC000001481833    0.1400
16     C16     5.0792   -3.3330    1.4205 C.3      1 ZINC000001481833    0.0000
17     N17     3.8083   -3.5735    2.1141 N.4      1 ZINC000001481833   -0.5100
18     H18     3.9981   -3.8681    3.0603 H        1 ZINC000001481833    0.4300
19     H19     3.2750   -2.7172    2.1346 H        1 ZINC000001481833    0.4200
20     C20     2.9732   -4.5962    1.4242 C.3      1 ZINC000001481833    0.0100
21     H21    -0.9615    1.8307    0.0256 H        1 ZINC000001481833    0.1900
22     H22     1.1400    3.1182    0.0068 H        1 ZINC000001481833    0.1900
23     H23     4.5370   -0.0448   -0.0275 H        1 ZINC000001481833    0.1500
24     H24     0.3130   -2.6322   -0.0240 H        1 ZINC000001481833    0.1500
25     H25     4.7286   -5.0983   -0.4516 H        1 ZINC000001481833    0.1000
26     H26     4.1044   -4.0755   -1.7953 H        1 ZINC000001481833    0.1000
27     H27     5.6815   -4.2413    1.4379 H        1 ZINC000001481833    0.1400
28     H28     5.6189   -2.5269    1.9176 H        1 ZINC000001481833    0.1400
29     H29     2.0239   -4.7058    1.9485 H        1 ZINC000001481833    0.1400
30     H30     3.4989   -5.5510    1.4161 H        1 ZINC000001481833    0.1400
@<TRIPOS>BOND
1     1     10    ar
2     1     2     ar
3     1     21    1
4     2     3     ar
5     2     22    1
6     3     4     ar
7     4     9     ar
8     4     5     ar
9     5     6     ar
10    5     23    1
11    6     14    1
12    6     7     ar
13    7     8     ar
14    7     11    1
15    8     9     ar
16    8     24    1
17    9     10    ar
18    11    12    1
19    11    20    1
20    11    13    1
21    13    14    1
22    13    25    1
23    13    26    1
24    14    15    1
25    14    16    1
26    16    17    1
27    16    27    1
28    16    28    1
29    17    18    1
30    17    19    1
31    17    20    1
32    20    29    1
33    20    30    1
@<TRIPOS>SUBSTRUCTURE
1   ZINC000001481833 1     RESIDUE    1   A     ZIN   1
