@<TRIPOS>MOLECULE
ZINC000001530974
43    45    1     0     0
SMALL
USER_CHARGES
@<TRIPOS>ATOM
1      Cl1    -0.5672    0.4037   -1.4692 Cl       1 ZINC000001530974   -0.0600
2      C2     -0.4354    2.1144   -1.2052 C.ar     1 ZINC000001530974   -0.0300
3      C3     -1.5774    2.8840   -1.0714 C.ar     1 ZINC000001530974   -0.1000
4      C4     -1.4719    4.2460   -0.8612 C.ar     1 ZINC000001530974   -0.1000
5      C5     -0.2256    4.8394   -0.7852 C.ar     1 ZINC000001530974   -0.0900
6      C6     -0.1113    6.3246   -0.5565 C.3      1 ZINC000001530974   -0.0800
7      C7     -0.0544    6.6063    0.9462 C.3      1 ZINC000001530974   -0.1000
8      C8      0.0617    8.1141    1.1784 C.3      1 ZINC000001530974   -0.1100
9      H9      0.9212    8.5009    0.6308 H        1 ZINC000001530974    0.1100
10     C10     0.2439    8.3875    2.6727 C.3      1 ZINC000001530974    0.1000
11     N11     1.5114    7.8081    3.1242 N.pl3    1 ZINC000001530974   -0.4000
12     C12     1.6818    6.5812    3.7066 C.2      1 ZINC000001530974    0.0300
13     C13     2.9978    6.4500    3.9609 C.2      1 ZINC000001530974    0.0100
14     N14     3.6141    7.5663    3.5450 N.pl3    1 ZINC000001530974   -0.4700
15     H15     4.5666    7.7385    3.6078 H        1 ZINC000001530974    0.4700
16     C16     2.7307    8.3823    3.0381 C.cat    1 ZINC000001530974    0.2800
17     S17    -1.4469    8.9339    0.5932 S.3      1 ZINC000001530974   -0.0400
18     C18    -1.0755   10.6436    0.8022 C.ar     1 ZINC000001530974   -0.1500
19     C19    -1.5021   11.3151    1.9423 C.ar     1 ZINC000001530974    0.0100
20     Cl20   -2.4013   10.4701    3.1634 Cl       1 ZINC000001530974   -0.0300
21     C21    -1.2088   12.6561    2.1026 C.ar     1 ZINC000001530974   -0.1100
22     C22    -0.4921   13.3300    1.1306 C.ar     1 ZINC000001530974   -0.0600
23     C23    -0.0664   12.6657   -0.0052 C.ar     1 ZINC000001530974   -0.1100
24     C24    -0.3504   11.3232   -0.1699 C.ar     1 ZINC000001530974    0.0100
25     Cl25    0.1845   10.4903   -1.5960 Cl       1 ZINC000001530974   -0.0300
26     C26     0.9158    4.0709   -0.9183 C.ar     1 ZINC000001530974   -0.1100
27     C27     0.8116    2.7080   -1.1228 C.ar     1 ZINC000001530974   -0.1100
28     H28    -2.5511    2.4206   -1.1315 H        1 ZINC000001530974    0.1400
29     H29    -2.3632    4.8468   -0.7567 H        1 ZINC000001530974    0.1300
30     H30     0.7972    6.6963   -1.0305 H        1 ZINC000001530974    0.0800
31     H31    -0.9775    6.8263   -0.9877 H        1 ZINC000001530974    0.0900
32     H32    -0.9628    6.2346    1.4202 H        1 ZINC000001530974    0.0900
33     H33     0.8119    6.1045    1.3774 H        1 ZINC000001530974    0.0800
34     H34     0.2539    9.4635    2.8466 H        1 ZINC000001530974    0.1200
35     H35    -0.5794    7.9375    3.2274 H        1 ZINC000001530974    0.1400
36     H36     0.9094    5.8576    3.9213 H        1 ZINC000001530974    0.2200
37     H37     3.4735    5.5956    4.4193 H        1 ZINC000001530974    0.2300
38     H38     2.9393    9.3579    2.6245 H        1 ZINC000001530974    0.2600
39     H39    -1.5401   13.1786    2.9878 H        1 ZINC000001530974    0.1500
40     H40    -0.2645   14.3780    1.2587 H        1 ZINC000001530974    0.1500
41     H41     0.4925   13.1955   -0.7623 H        1 ZINC000001530974    0.1500
42     H42     1.8891    4.5351   -0.8588 H        1 ZINC000001530974    0.1300
43     H43     1.7034    2.1076   -1.2265 H        1 ZINC000001530974    0.1300
@<TRIPOS>BOND
1     1     2     1
2     2     27    ar
3     2     3     ar
4     3     4     ar
5     3     28    1
6     4     5     ar
7     4     29    1
8     5     6     1
9     5     26    ar
10    6     7     1
11    6     30    1
12    6     31    1
13    7     8     1
14    7     32    1
15    7     33    1
16    8     9     1
17    8     10    1
18    8     17    1
19    10    11    1
20    10    34    1
21    10    35    1
22    11    16    ar
23    11    12    1
24    12    13    2
25    12    36    1
26    13    14    1
27    13    37    1
28    14    15    1
29    14    16    ar
30    16    38    1
31    17    18    1
32    18    24    ar
33    18    19    ar
34    19    20    1
35    19    21    ar
36    21    22    ar
37    21    39    1
38    22    23    ar
39    22    40    1
40    23    24    ar
41    23    41    1
42    24    25    1
43    26    27    ar
44    26    42    1
45    27    43    1
@<TRIPOS>SUBSTRUCTURE
1   ZINC000001530974 1     RESIDUE    1   A     ZIN   1
