@<TRIPOS>MOLECULE
ZINC000000020259
28   28    0    0    0
SMALL
USER_CHARGES
NO_NAME
@<TRIPOS>ATOM
1 C1       -0.0178     1.4648     0.0101 C.3    1 <0>      -0.0500
2 N2        0.0021    -0.0041     0.0020 N.4    1 <0>      -0.5100
3 H3        0.4744    -0.3295    -0.8281 H      1 <0>       0.4200
4 H4        0.4901    -0.3383     0.8195 H      1 <0>       0.4300
5 C5       -1.3761    -0.5125     0.0124 C.3    1 <0>      -0.0100
6 H6       -1.9129    -0.0898     0.8617 H      1 <0>       0.1500
7 C7       -2.0780    -0.1101    -1.2861 C.3    1 <0>      -0.1800
8 C8       -1.3560    -2.0379     0.1298 C.3    1 <0>       0.1400
9 H9       -2.3786    -2.4152     0.1375 H      1 <0>       0.1500
10 O10      -0.6523    -2.5921    -0.9836 O.3    1 <0>      -0.5300
11 C11      -0.6647    -2.4343     1.4088 C.ar   1 <0>      -0.1600
12 C12       0.7161    -2.4402     1.4750 C.ar   1 <0>      -0.1500
13 C13       1.3503    -2.8038     2.6482 C.ar   1 <0>      -0.1000
14 C14       0.6037    -3.1610     3.7555 C.ar   1 <0>      -0.1000
15 C15      -0.7771    -3.1542     3.6896 C.ar   1 <0>      -0.1000
16 C16      -1.4113    -2.7865     2.5176 C.ar   1 <0>      -0.0900
17 H17       1.0047     1.8421     0.0024 H      1 <0>       0.1300
18 H18      -0.5450     1.8259    -0.8730 H      1 <0>       0.1300
19 H19      -0.5280     1.8163     0.9069 H      1 <0>       0.1300
20 H20      -1.5412    -0.5328    -2.1354 H      1 <0>       0.0900
21 H21      -3.1006    -0.4874    -1.2784 H      1 <0>       0.1100
22 H22      -2.0923     0.9766    -1.3697 H      1 <0>       0.0900
23 H23       0.2667    -2.2992    -1.0533 H      1 <0>       0.3700
24 H24       1.2994    -2.1611     0.6100 H      1 <0>       0.1200
25 H25       2.4290    -2.8091     2.6997 H      1 <0>       0.1400
26 H26       1.0992    -3.4458     4.6719 H      1 <0>       0.1400
27 H27      -1.3603    -3.4336     4.5545 H      1 <0>       0.1400
28 H28      -2.4900    -2.7811     2.4661 H      1 <0>       0.1300
@<TRIPOS>BOND
1    1    2 1
2    1   17 1
3    1   18 1
4    1   19 1
5    2    3 1
6    2    4 1
7    2    5 1
8    5    6 1
9    5    7 1
10    5    8 1
11    7   20 1
12    7   21 1
13    7   22 1
14    8    9 1
15    8   10 1
16    8   11 1
17   10   23 1
18   11   16 ar
19   11   12 ar
20   12   13 ar
21   12   24 1
22   13   14 ar
23   13   25 1
24   14   15 ar
25   14   26 1
26   15   16 ar
27   15   27 1
28   16   28 1
