@<TRIPOS>MOLECULE
ZINC000000006156
34    35    1     0     0
SMALL
USER_CHARGES
@<TRIPOS>ATOM
1      N1     -2.0166    1.8477    1.1751 N.am     1 ZINC000000006156   -0.8500
2      C2     -1.4793    0.6324    0.9492 C.2      1 ZINC000000006156    0.5500
3      O3     -0.2772    0.4811    1.0043 O.2      1 ZINC000000006156   -0.5400
4      C4     -2.3722   -0.5383    0.6281 C.3      1 ZINC000000006156   -0.5000
5      S5     -1.3582   -2.0216    0.3787 S.o      1 ZINC000000006156    1.3100
6      O6     -0.6873   -2.3457    1.5887 O.2      1 ZINC000000006156   -0.8100
7      C7     -2.5902   -3.3007    0.0091 C.3      1 ZINC000000006156   -0.3500
8      C8     -3.4435   -2.8561   -1.1508 C.ar     1 ZINC000000006156   -0.0500
9      C9     -2.8483   -2.4322   -2.3242 C.ar     1 ZINC000000006156   -0.1200
10     C10    -3.6310   -2.0244   -3.3881 C.ar     1 ZINC000000006156   -0.1100
11     C11    -5.0089   -2.0409   -3.2787 C.ar     1 ZINC000000006156   -0.1200
12     C12    -5.6041   -2.4656   -2.1056 C.ar     1 ZINC000000006156   -0.1100
13     C13    -4.8215   -2.8775   -1.0432 C.ar     1 ZINC000000006156   -0.1100
14     C14    -1.8885   -4.5860   -0.3472 C.ar     1 ZINC000000006156   -0.0500
15     C15    -0.8969   -4.5881   -1.3103 C.ar     1 ZINC000000006156   -0.1300
16     C16    -0.2533   -5.7670   -1.6370 C.ar     1 ZINC000000006156   -0.1100
17     C17    -0.6009   -6.9437   -1.0003 C.ar     1 ZINC000000006156   -0.1200
18     C18    -1.5919   -6.9414   -0.0366 C.ar     1 ZINC000000006156   -0.1100
19     C19    -2.2326   -5.7617    0.2932 C.ar     1 ZINC000000006156   -0.1100
20     H20    -1.4419    2.6012    1.3818 H        1 ZINC000000006156    0.4100
21     H21    -2.9777    1.9695    1.1271 H        1 ZINC000000006156    0.4000
22     H22    -3.0634   -0.7054    1.4543 H        1 ZINC000000006156    0.1200
23     H23    -2.9362   -0.3268   -0.2803 H        1 ZINC000000006156    0.1500
24     H24    -3.2207   -3.4613    0.8835 H        1 ZINC000000006156    0.1100
25     H25    -1.7717   -2.4193   -2.4097 H        1 ZINC000000006156    0.1300
26     H26    -3.1660   -1.6925   -4.3046 H        1 ZINC000000006156    0.1300
27     H27    -5.6204   -1.7216   -4.1097 H        1 ZINC000000006156    0.1200
28     H28    -6.6807   -2.4782   -2.0201 H        1 ZINC000000006156    0.1200
29     H29    -5.2865   -3.2094   -0.1267 H        1 ZINC000000006156    0.1200
30     H30    -0.6253   -3.6688   -1.8077 H        1 ZINC000000006156    0.1300
31     H31     0.5210   -5.7688   -2.3900 H        1 ZINC000000006156    0.1300
32     H32    -0.0986   -7.8649   -1.2561 H        1 ZINC000000006156    0.1300
33     H33    -1.8638   -7.8608    0.4606 H        1 ZINC000000006156    0.1200
34     H34    -3.0068   -5.7599    1.0462 H        1 ZINC000000006156    0.1200
@<TRIPOS>BOND
1     1     2     am
2     1     20    1
3     1     21    1
4     2     3     2
5     2     4     1
6     4     5     1
7     4     22    1
8     4     23    1
9     5     6     2
10    5     7     1
11    7     8     1
12    7     14    1
13    7     24    1
14    8     13    ar
15    8     9     ar
16    9     10    ar
17    9     25    1
18    10    11    ar
19    10    26    1
20    11    12    ar
21    11    27    1
22    12    13    ar
23    12    28    1
24    13    29    1
25    14    19    ar
26    14    15    ar
27    15    16    ar
28    15    30    1
29    16    17    ar
30    16    31    1
31    17    18    ar
32    17    32    1
33    18    19    ar
34    18    33    1
35    19    34    1
@<TRIPOS>SUBSTRUCTURE
1   ZINC000000006156 1     RESIDUE    1   A     ZIN   1
