@<TRIPOS>MOLECULE
ZINC000030691754
55    57    1     0     0
SMALL
USER_CHARGES
@<TRIPOS>ATOM
1      C1     10.3378    3.4853    3.8651 C.3      1 ZINC000030691754    0.0200
2      O2     10.1675    2.0813    4.0694 O.3      1 ZINC000030691754   -0.3100
3      C3     10.0514    1.3055    2.9587 C.ar     1 ZINC000030691754    0.1200
4      C4     10.1067    1.8879    1.6984 C.ar     1 ZINC000030691754   -0.1500
5      C5      9.9899    1.1097    0.5645 C.ar     1 ZINC000030691754   -0.0900
6      C6      9.8156   -0.2629    0.6763 C.ar     1 ZINC000030691754    0.1700
7      N7      9.6978   -1.0483   -0.4688 N.am     1 ZINC000030691754   -0.6500
8      C8     10.3190   -0.6787   -1.6063 C.2      1 ZINC000030691754    0.5500
9      O9     11.0788    0.2701   -1.6032 O.2      1 ZINC000030691754   -0.5000
10     C10    10.0763   -1.4274   -2.8581 C.ar     1 ZINC000030691754   -0.0700
11     C11     9.1992   -2.5138   -2.8633 C.ar     1 ZINC000030691754   -0.0800
12     C12     8.9736   -3.2110   -4.0299 C.ar     1 ZINC000030691754   -0.0700
13     C13     9.6216   -2.8320   -5.2058 C.ar     1 ZINC000030691754   -0.1300
14     C14     9.3785   -3.5823   -6.4601 C.cat    1 ZINC000030691754    0.5700
15     N15     9.3167   -2.9490   -7.5958 N.pl3    1 ZINC000030691754   -0.7400
16     H16     9.1576   -3.4402   -8.4169 H        1 ZINC000030691754    0.4300
17     H17     9.4299   -1.9860   -7.6208 H        1 ZINC000030691754    0.4500
18     N18     9.2177   -4.9503   -6.4244 N.pl3    1 ZINC000030691754   -0.5500
19     C19     8.8620   -5.6781   -7.6451 C.3      1 ZINC000030691754    0.0500
20     C20     9.4025   -5.6770   -5.1659 C.3      1 ZINC000030691754    0.0500
21     C21    10.4981   -1.7466   -5.2013 C.ar     1 ZINC000030691754   -0.0700
22     C22    10.7198   -1.0448   -4.0368 C.ar     1 ZINC000030691754   -0.0500
23     C23     9.7590   -0.8569    1.9461 C.ar     1 ZINC000030691754   -0.1300
24     C24     9.5746   -2.3144    2.0752 C.2      1 ZINC000030691754    0.5700
25     O25     9.6482   -3.0259    1.0920 O.2      1 ZINC000030691754   -0.4800
26     N26     9.3245   -2.8576    3.2830 N.am     1 ZINC000030691754   -0.6500
27     C27     9.2746   -4.2429    3.4271 C.ar     1 ZINC000030691754    0.3600
28     C28     8.8816   -4.7950    4.6409 C.ar     1 ZINC000030691754   -0.1900
29     C29     8.8358   -6.1720    4.7709 C.ar     1 ZINC000030691754   -0.0300
30     C30     9.1863   -6.9528    3.6769 C.ar     1 ZINC000030691754   -0.1200
31     Cl31    9.1455   -8.6848    3.7861 Cl       1 ZINC000030691754   -0.0500
32     C32     9.5675   -6.3358    2.5002 C.ar     1 ZINC000030691754    0.1500
33     N33     9.5965   -5.0204    2.4052 N.ar     1 ZINC000030691754   -0.4600
34     C34     9.8843   -0.0613    3.0872 C.ar     1 ZINC000030691754   -0.1000
35     H35    11.2461    3.6611    3.2888 H        1 ZINC000030691754    0.0600
36     H36     9.4800    3.8800    3.3206 H        1 ZINC000030691754    0.0600
37     H37    10.4171    3.9859    4.8301 H        1 ZINC000030691754    0.1100
38     H38    10.2414    2.9555    1.6055 H        1 ZINC000030691754    0.1400
39     H39    10.0339    1.5696   -0.4117 H        1 ZINC000030691754    0.1500
40     H40     9.1686   -1.8609   -0.4472 H        1 ZINC000030691754    0.4200
41     H41     8.6981   -2.8078   -1.9529 H        1 ZINC000030691754    0.1500
42     H42     8.2952   -4.0514   -4.0340 H        1 ZINC000030691754    0.1500
43     H43     8.8427   -4.9868   -8.4877 H        1 ZINC000030691754    0.0800
44     H44     9.6006   -6.4577   -7.8316 H        1 ZINC000030691754    0.1100
45     H45     7.8780   -6.1312   -7.5243 H        1 ZINC000030691754    0.1100
46     H46     8.4515   -5.7345   -4.6365 H        1 ZINC000030691754    0.0900
47     H47     9.7621   -6.6841   -5.3772 H        1 ZINC000030691754    0.1100
48     H48    10.1315   -5.1533   -4.5475 H        1 ZINC000030691754    0.1000
49     H49    10.9997   -1.4540   -6.1119 H        1 ZINC000030691754    0.1500
50     H50    11.3980   -0.2043   -4.0335 H        1 ZINC000030691754    0.1600
51     H51     9.1793   -2.2845    4.0520 H        1 ZINC000030691754    0.4200
52     H52     8.6160   -4.1578    5.4715 H        1 ZINC000030691754    0.1500
53     H53     8.5347   -6.6292    5.7019 H        1 ZINC000030691754    0.1500
54     H54     9.8413   -6.9382    1.6467 H        1 ZINC000030691754    0.1700
55     H55     9.8420   -0.5114    4.0680 H        1 ZINC000030691754    0.1400
@<TRIPOS>BOND
1     1     2     1
2     1     35    1
3     1     36    1
4     1     37    1
5     2     3     1
6     3     34    ar
7     3     4     ar
8     4     5     ar
9     4     38    1
10    5     6     ar
11    5     39    1
12    6     7     1
13    6     23    ar
14    7     8     am
15    7     40    1
16    8     9     2
17    8     10    1
18    10    22    ar
19    10    11    ar
20    11    12    ar
21    11    41    1
22    12    13    ar
23    12    42    1
24    13    14    1
25    13    21    ar
26    14    15    ar
27    14    18    ar
28    15    16    1
29    15    17    1
30    18    19    1
31    18    20    1
32    19    43    1
33    19    44    1
34    19    45    1
35    20    46    1
36    20    47    1
37    20    48    1
38    21    22    ar
39    21    49    1
40    22    50    1
41    23    24    1
42    23    34    ar
43    24    25    2
44    24    26    am
45    26    27    1
46    26    51    1
47    27    33    ar
48    27    28    ar
49    28    29    ar
50    28    52    1
51    29    30    ar
52    29    53    1
53    30    31    1
54    30    32    ar
55    32    33    ar
56    32    54    1
57    34    55    1
@<TRIPOS>SUBSTRUCTURE
1   ZINC000030691754 1     RESIDUE    1   A     ZIN   1
