@<TRIPOS>MOLECULE
ZINC000096903163
76    79    1     0     0
SMALL
USER_CHARGES
@<TRIPOS>ATOM
1      C1     -0.0157    1.3054    0.0092 C.2      1 ZINC000096903163   -0.1500
2      C2      0.0021   -0.0041    0.0020 C.2      1 ZINC000096903163   -0.1600
3      C3     -1.3038   -0.7581    0.0213 C.3      1 ZINC000096903163   -0.0800
4      C4     -1.2759   -1.8042    1.1350 C.3      1 ZINC000096903163   -0.1200
5      C5     -1.8125   -3.1415    0.6492 C.3      1 ZINC000096903163   -0.1300
6      H6     -2.9076   -3.1932    0.5780 H        1 ZINC000096903163    0.1000
7      C7     -1.0328   -3.9566   -0.3864 C.3      1 ZINC000096903163   -0.1300
8      H8     -1.6540   -4.5374   -1.0991 H        1 ZINC000096903163    0.1100
9      C9      0.1627   -3.3267   -1.0153 C.2      1 ZINC000096903163   -0.0600
10     C10     1.2373   -3.9054   -1.5021 C.2      1 ZINC000096903163   -0.1800
11     C11     1.3801   -5.4163   -1.4811 C.3      1 ZINC000096903163   -0.1000
12     C12     2.3395   -3.1523   -2.0796 C.2      1 ZINC000096903163    0.3700
13     O13     2.8623   -3.6184   -3.0777 O.2      1 ZINC000096903163   -0.4100
14     C14     2.9426   -1.9050   -1.5346 C.3      1 ZINC000096903163    0.1000
15     O15     3.5482   -2.1513   -0.2357 O.3      1 ZINC000096903163   -0.3200
16     C16     4.5247   -3.0708   -0.1831 C.2      1 ZINC000096903163    0.4500
17     C17     5.1991   -3.3795    1.1287 C.3      1 ZINC000096903163   -0.1500
18     O18     4.8630   -3.6509   -1.1875 O.2      1 ZINC000096903163   -0.4900
19     C19     4.0472   -1.3929   -2.4847 C.3      1 ZINC000096903163   -0.1300
20     C20     3.7383    0.0808   -2.7747 C.3      1 ZINC000096903163   -0.1100
21     H21     3.4551    0.2031   -3.8178 H        1 ZINC000096903163    0.0900
22     C22     4.9672    0.9361   -2.4589 C.3      1 ZINC000096903163   -0.1500
23     C23     2.5674    0.5092   -1.8710 C.3      1 ZINC000096903163    0.1000
24     H24     1.8611    1.1029   -2.4602 H        1 ZINC000096903163    0.1000
25     O25     3.0802    1.3015   -0.7748 O.3      1 ZINC000096903163   -0.3100
26     C26     3.1281    2.6357   -0.9546 C.2      1 ZINC000096903163    0.5100
27     O27     2.7503    3.1214   -2.0019 O.2      1 ZINC000096903163   -0.5100
28     C28     3.6401    3.5082    0.1220 C.ar     1 ZINC000096903163   -0.1200
29     C29     4.0805    2.9528    1.3249 C.ar     1 ZINC000096903163   -0.0600
30     C30     4.5574    3.7733    2.3260 C.ar     1 ZINC000096903163   -0.1400
31     C31     4.5999    5.1437    2.1402 C.ar     1 ZINC000096903163   -0.0800
32     C32     4.1651    5.7008    0.9505 C.ar     1 ZINC000096903163   -0.1300
33     C33     3.6912    4.8915   -0.0611 C.ar     1 ZINC000096903163   -0.0600
34     C34     1.8968   -0.7896   -1.4138 C.3      1 ZINC000096903163   -0.0600
35     H35     1.0822   -1.0089   -2.1273 H        1 ZINC000096903163    0.1200
36     C36     1.3194   -0.7335   -0.0145 C.3      1 ZINC000096903163    0.1300
37     H37     1.1364   -1.7661    0.3261 H        1 ZINC000096903163    0.1100
38     O38     2.2303   -0.1249    0.9308 O.3      1 ZINC000096903163   -0.3100
39     C39     2.1556   -0.5423    2.2043 C.2      1 ZINC000096903163    0.4600
40     C40     3.0727    0.0463    3.2452 C.3      1 ZINC000096903163   -0.1500
41     O41     1.3530   -1.3899    2.5161 O.2      1 ZINC000096903163   -0.5100
42     C42    -1.0933   -4.4256    1.0620 C.3      1 ZINC000096903163   -0.0900
43     C43     0.1747   -4.3322    1.9073 C.3      1 ZINC000096903163   -0.1100
44     C44    -1.9773   -5.6440    1.3644 C.3      1 ZINC000096903163   -0.1200
45     H45     0.9122    1.8581    0.0033 H        1 ZINC000096903163    0.1000
46     H46    -0.9582    1.8326    0.0166 H        1 ZINC000096903163    0.1000
47     H47    -2.1148   -0.0530    0.2141 H        1 ZINC000096903163    0.0700
48     H48    -1.4603   -1.2402   -0.9414 H        1 ZINC000096903163    0.0800
49     H49    -0.2624   -1.8895    1.5107 H        1 ZINC000096903163    0.1100
50     H50    -1.9133   -1.4516    1.9572 H        1 ZINC000096903163    0.0600
51     H51     0.1171   -2.2289   -1.1312 H        1 ZINC000096903163    0.1100
52     H52     0.9663   -5.8332   -2.3993 H        1 ZINC000096903163    0.0700
53     H53     2.4348   -5.6806   -1.4051 H        1 ZINC000096903163    0.0600
54     H54     0.8416   -5.8203   -0.6238 H        1 ZINC000096903163    0.0700
55     H55     4.6636   -4.1846    1.6319 H        1 ZINC000096903163    0.1100
56     H56     6.2284   -3.6873    0.9445 H        1 ZINC000096903163    0.1100
57     H57     5.1931   -2.4899    1.7585 H        1 ZINC000096903163    0.0900
58     H58     5.0186   -1.4771   -1.9944 H        1 ZINC000096903163    0.0900
59     H59     4.0447   -1.9642   -3.4113 H        1 ZINC000096903163    0.1100
60     H60     5.7964    0.6302   -3.0968 H        1 ZINC000096903163    0.0600
61     H61     4.7362    1.9855   -2.6415 H        1 ZINC000096903163    0.0600
62     H62     5.2444    0.8017   -1.4133 H        1 ZINC000096903163    0.0700
63     H63     4.0475    1.8833    1.4714 H        1 ZINC000096903163    0.1400
64     H64     4.8980    3.3450    3.2572 H        1 ZINC000096903163    0.1300
65     H65     4.9739    5.7816    2.9274 H        1 ZINC000096903163    0.1300
66     H66     4.2010    6.7713    0.8120 H        1 ZINC000096903163    0.1300
67     H67     3.3521    5.3275   -0.9891 H        1 ZINC000096903163    0.1400
68     H68     3.7210    0.7890    2.7801 H        1 ZINC000096903163    0.0900
69     H69     2.4787    0.5208    4.0263 H        1 ZINC000096903163    0.1000
70     H70     3.6818   -0.7451    3.6820 H        1 ZINC000096903163    0.1000
71     H71     0.9372   -3.7793    1.3587 H        1 ZINC000096903163    0.0600
72     H72    -0.0481   -3.8151    2.8406 H        1 ZINC000096903163    0.0700
73     H73     0.5402   -5.3355    2.1262 H        1 ZINC000096903163    0.0600
74     H74    -1.3479   -6.4896    1.6418 H        1 ZINC000096903163    0.0600
75     H75    -2.6521   -5.4081    2.1872 H        1 ZINC000096903163    0.0600
76     H76    -2.5593   -5.8994    0.4789 H        1 ZINC000096903163    0.0600
@<TRIPOS>BOND
1     1     2     2
2     1     45    1
3     1     46    1
4     2     36    1
5     2     3     1
6     3     4     1
7     3     47    1
8     3     48    1
9     4     5     1
10    4     49    1
11    4     50    1
12    5     6     1
13    5     42    1
14    5     7     1
15    7     8     1
16    7     9     1
17    7     42    1
18    9     10    2
19    9     51    1
20    10    11    1
21    10    12    1
22    11    52    1
23    11    53    1
24    11    54    1
25    12    13    2
26    12    14    1
27    14    34    1
28    14    15    1
29    14    19    1
30    15    16    1
31    16    17    1
32    16    18    2
33    17    55    1
34    17    56    1
35    17    57    1
36    19    20    1
37    19    58    1
38    19    59    1
39    20    21    1
40    20    22    1
41    20    23    1
42    22    60    1
43    22    61    1
44    22    62    1
45    23    24    1
46    23    25    1
47    23    34    1
48    25    26    1
49    26    27    2
50    26    28    1
51    28    33    ar
52    28    29    ar
53    29    30    ar
54    29    63    1
55    30    31    ar
56    30    64    1
57    31    32    ar
58    31    65    1
59    32    33    ar
60    32    66    1
61    33    67    1
62    34    35    1
63    34    36    1
64    36    37    1
65    36    38    1
66    38    39    1
67    39    40    1
68    39    41    2
69    40    68    1
70    40    69    1
71    40    70    1
72    42    43    1
73    42    44    1
74    43    71    1
75    43    72    1
76    43    73    1
77    44    74    1
78    44    75    1
79    44    76    1
@<TRIPOS>SUBSTRUCTURE
1   ZINC000096903163 1     RESIDUE    1   A     ZIN   1
