@<TRIPOS>MOLECULE
ZINC000000008667
30    31    1     0     0
SMALL
USER_CHARGES
@<TRIPOS>ATOM
1      C1     -0.0187    1.5258    0.0104 C.3      1 ZINC000000008667   -0.1100
2      C2      0.0021   -0.0041    0.0020 C.3      1 ZINC000000008667   -0.1400
3      H3      0.5123   -0.3556   -0.8948 H        1 ZINC000000008667    0.0700
4      C4      0.7309   -0.5033    1.2229 C.2      1 ZINC000000008667    0.5000
5      O5      1.1912    0.2909    2.0254 O.co2    1 ZINC000000008667   -0.6900
6      O6      0.8604   -1.7014    1.4082 O.co2    1 ZINC000000008667   -0.6900
7      C7     -1.4117   -0.5257    0.0127 C.ar     1 ZINC000000008667    0.0100
8      C8     -2.2572   -0.2024    1.0585 C.ar     1 ZINC000000008667   -0.1200
9      C9     -3.5534   -0.6770    1.0750 C.ar     1 ZINC000000008667   -0.0800
10     C10    -4.0109   -1.4834    0.0354 C.ar     1 ZINC000000008667   -0.1100
11     C11    -5.4031   -1.9959    0.0477 C.ar     1 ZINC000000008667   -0.0300
12     C12    -5.9085   -2.6199    1.1866 C.ar     1 ZINC000000008667   -0.1100
13     C13    -7.2044   -3.0949    1.1924 C.ar     1 ZINC000000008667   -0.1200
14     C14    -8.0008   -2.9529    0.0705 C.ar     1 ZINC000000008667   -0.1300
15     C15    -7.5042   -2.3348   -1.0629 C.ar     1 ZINC000000008667   -0.1200
16     C16    -6.2120   -1.8501   -1.0776 C.ar     1 ZINC000000008667   -0.1000
17     C17    -3.1544   -1.8068   -1.0182 C.ar     1 ZINC000000008667    0.1100
18     F18    -3.5907   -2.5882   -2.0302 F        1 ZINC000000008667   -0.1400
19     C19    -1.8602   -1.3211   -1.0260 C.ar     1 ZINC000000008667   -0.1600
20     H20     1.0039    1.9031    0.0027 H        1 ZINC000000008667    0.0600
21     H21    -0.5459    1.8868   -0.8726 H        1 ZINC000000008667    0.0300
22     H22    -0.5289    1.8773    0.9072 H        1 ZINC000000008667    0.0600
23     H23    -1.9023    0.4228    1.8645 H        1 ZINC000000008667    0.1300
24     H24    -4.2116   -0.4239    1.8929 H        1 ZINC000000008667    0.1300
25     H25    -5.2873   -2.7319    2.0629 H        1 ZINC000000008667    0.1300
26     H26    -7.5971   -3.5786    2.0746 H        1 ZINC000000008667    0.1200
27     H27    -9.0142   -3.3264    0.0793 H        1 ZINC000000008667    0.1200
28     H28    -8.1302   -2.2269   -1.9363 H        1 ZINC000000008667    0.1200
29     H29    -5.8252   -1.3674   -1.9629 H        1 ZINC000000008667    0.1200
30     H30    -1.1957   -1.5700   -1.8402 H        1 ZINC000000008667    0.1300
@<TRIPOS>BOND
1     1     2     1
2     1     20    1
3     1     21    1
4     1     22    1
5     2     3     1
6     2     4     1
7     2     7     1
8     4     5     ar
9     4     6     ar
10    7     19    ar
11    7     8     ar
12    8     9     ar
13    8     23    1
14    9     10    ar
15    9     24    1
16    10    11    1
17    10    17    ar
18    11    16    ar
19    11    12    ar
20    12    13    ar
21    12    25    1
22    13    14    ar
23    13    26    1
24    14    15    ar
25    14    27    1
26    15    16    ar
27    15    28    1
28    16    29    1
29    17    18    1
30    17    19    ar
31    19    30    1
@<TRIPOS>SUBSTRUCTURE
1   ZINC000000008667 1     RESIDUE    1   A     ZIN   1
