@<TRIPOS>MOLECULE
ZINC000003798750
20   19    0    0    0
SMALL
USER_CHARGES
NO_NAME
@<TRIPOS>ATOM
1 C1       -0.0157     1.3058     0.0092 C.2    1 <0>      -0.1900
2 C2        0.0021    -0.0041     0.0020 C.2    1 <0>      -0.1600
3 C3       -1.2926    -0.7753     0.0102 C.3    1 <0>       0.0600
4 H4       -1.3737    -1.3393     0.9394 H      1 <0>       0.1500
5 N5       -2.4204     0.1602    -0.0947 N.4    1 <0>      -0.6400
6 H6       -3.2873    -0.3562    -0.0892 H      1 <0>       0.4400
7 H7       -2.4032     0.7969     0.6879 H      1 <0>       0.4300
8 H8       -2.3454     0.6823    -0.9548 H      1 <0>       0.4300
9 C9       -1.3187    -1.7407    -1.1764 C.3    1 <0>      -0.1200
10 C10      -2.5748    -2.6108    -1.0985 C.3    1 <0>      -0.2000
11 C11      -2.6005    -3.5617    -2.2673 C.2    1 <0>       0.4900
12 O12      -1.6978    -3.5451    -3.0866 O.co2  1 <0>      -0.6900
13 O13      -3.5240    -4.3477    -2.3935 O.co2  1 <0>      -0.6900
14 H14       0.9122     1.8585     0.0033 H      1 <0>       0.1300
15 H15      -0.9582     1.8330     0.0166 H      1 <0>       0.0900
16 H16       0.9446    -0.5313    -0.0098 H      1 <0>       0.1500
17 H17      -1.3272    -1.1728    -2.1067 H      1 <0>       0.0900
18 H18      -0.4339    -2.3766    -1.1470 H      1 <0>       0.1100
19 H19      -2.5663    -3.1787    -0.1681 H      1 <0>       0.0700
20 H20      -3.4596    -1.9749    -1.1279 H      1 <0>       0.0500
@<TRIPOS>BOND
1    1    2 2
2    1   14 1
3    1   15 1
4    2    3 1
5    2   16 1
6    3    4 1
7    3    5 1
8    3    9 1
9    5    6 1
10    5    7 1
11    5    8 1
12    9   10 1
13    9   17 1
14    9   18 1
15   10   11 1
16   10   19 1
17   10   20 1
18   11   12 ar
19   11   13 ar
