@<TRIPOS>MOLECULE
ZINC000021981454
56    59    1     0     0
SMALL
USER_CHARGES
@<TRIPOS>ATOM
1      C1      0.1910    1.9542    0.4043 C.3      1 ZINC000021981454   -0.1500
2      C2      0.2348    0.4349    0.2284 C.3      1 ZINC000021981454   -0.0900
3      H3      0.8334    0.1769   -0.6452 H        1 ZINC000021981454    0.0900
4      C4     -1.2053   -0.1254    0.0723 C.3      1 ZINC000021981454   -0.1100
5      C5     -1.5647   -0.5499    1.5005 C.3      1 ZINC000021981454   -0.0900
6      H6     -1.7957    0.3243    2.1092 H        1 ZINC000021981454    0.0900
7      C7     -2.6683   -1.5846    1.6240 C.3      1 ZINC000021981454   -0.0800
8      H8     -2.3964   -2.4807    1.0661 H        1 ZINC000021981454    0.1200
9      C9     -3.9786   -1.0141    1.0775 C.3      1 ZINC000021981454   -0.1500
10     C10    -5.0803   -2.0747    1.1674 C.3      1 ZINC000021981454    0.1300
11     H11    -4.8353   -2.9157    0.5188 H        1 ZINC000021981454    0.1100
12     F12    -6.3038   -1.5190    0.7782 F        1 ZINC000021981454   -0.2000
13     C13    -5.1656   -2.5460    2.6070 C.2      1 ZINC000021981454   -0.0800
14     C14    -6.3441   -2.5470    3.2141 C.2      1 ZINC000021981454   -0.1900
15     C15    -6.4629   -2.9774    4.6159 C.2      1 ZINC000021981454    0.4100
16     O16    -7.5482   -3.0165    5.1649 O.2      1 ZINC000021981454   -0.4500
17     C17    -5.2387   -3.3602    5.3394 C.2      1 ZINC000021981454   -0.2000
18     C18    -4.0736   -3.3583    4.7112 C.2      1 ZINC000021981454   -0.0700
19     C19    -3.9001   -2.9939    3.2767 C.3      1 ZINC000021981454    0.0000
20     C20    -3.3931   -4.2334    2.5368 C.3      1 ZINC000021981454   -0.1400
21     C21    -2.8148   -1.9264    3.1154 C.3      1 ZINC000021981454    0.0600
22     Cl22   -3.3146   -0.4347    3.9962 Cl       1 ZINC000021981454   -0.1500
23     C23    -1.5122   -2.4338    3.7263 C.3      1 ZINC000021981454    0.1100
24     H24    -1.6488   -2.5607    4.8002 H        1 ZINC000021981454    0.0800
25     O25    -1.1865   -3.6983    3.1456 O.3      1 ZINC000021981454   -0.5400
26     C26    -0.3513   -1.4571    3.4805 C.3      1 ZINC000021981454   -0.1400
27     C27    -0.2411   -1.2069    1.9759 C.3      1 ZINC000021981454   -0.0500
28     C28    -0.1097   -2.5402    1.2370 C.3      1 ZINC000021981454   -0.1700
29     C29     0.8288   -0.2300    1.4952 C.3      1 ZINC000021981454   -0.1200
30     H30     1.0468    0.5034    2.2715 H        1 ZINC000021981454    0.1000
31     C31     2.0825   -0.9744    1.1144 C.2      1 ZINC000021981454    0.3600
32     O32     2.2614   -1.3092   -0.0320 O.2      1 ZINC000021981454   -0.4200
33     C33     3.1131   -1.3011    2.1644 C.3      1 ZINC000021981454    0.0200
34     O34     4.2011   -2.0043    1.5613 O.3      1 ZINC000021981454   -0.5500
35     H35     1.2026    2.3322    0.5518 H        1 ZINC000021981454    0.0500
36     H36    -0.2412    2.4107   -0.4862 H        1 ZINC000021981454    0.0600
37     H37    -0.4197    2.2020    1.2725 H        1 ZINC000021981454    0.0600
38     H38    -1.8845    0.6499   -0.2821 H        1 ZINC000021981454    0.0700
39     H39    -1.2143   -0.9841   -0.5991 H        1 ZINC000021981454    0.0700
40     H40    -4.2665   -0.1414    1.6637 H        1 ZINC000021981454    0.0900
41     H41    -3.8407   -0.7216    0.0366 H        1 ZINC000021981454    0.0900
42     H42    -7.2244   -2.2290    2.6752 H        1 ZINC000021981454    0.1500
43     H43    -5.2914   -3.6416    6.3808 H        1 ZINC000021981454    0.1400
44     H44    -3.1945   -3.6377    5.2729 H        1 ZINC000021981454    0.1300
45     H45    -4.2359   -4.8789    2.2893 H        1 ZINC000021981454    0.0600
46     H46    -2.8878   -3.9282    1.6205 H        1 ZINC000021981454    0.0800
47     H47    -2.6945   -4.7762    3.1735 H        1 ZINC000021981454    0.1000
48     H48    -0.3684   -4.0874    3.4838 H        1 ZINC000021981454    0.3800
49     H49    -0.5649   -0.4995    3.9553 H        1 ZINC000021981454    0.0800
50     H50     0.5741   -1.8723    3.8798 H        1 ZINC000021981454    0.0800
51     H51    -1.0282   -3.1145    1.3575 H        1 ZINC000021981454    0.1000
52     H52     0.0652   -2.3527    0.1775 H        1 ZINC000021981454    0.0600
53     H53     0.7276   -3.1032    1.6493 H        1 ZINC000021981454    0.0500
54     H54     3.4807   -0.3779    2.6122 H        1 ZINC000021981454    0.0800
55     H55     2.6608   -1.9243    2.9359 H        1 ZINC000021981454    0.0800
56     H56     4.9035   -2.2472    2.1799 H        1 ZINC000021981454    0.3900
@<TRIPOS>BOND
1     1     2     1
2     1     35    1
3     1     36    1
4     1     37    1
5     2     3     1
6     2     29    1
7     2     4     1
8     4     5     1
9     4     38    1
10    4     39    1
11    5     6     1
12    5     27    1
13    5     7     1
14    7     8     1
15    7     21    1
16    7     9     1
17    9     10    1
18    9     40    1
19    9     41    1
20    10    11    1
21    10    12    1
22    10    13    1
23    13    19    1
24    13    14    2
25    14    15    1
26    14    42    1
27    15    16    2
28    15    17    1
29    17    18    2
30    17    43    1
31    18    19    1
32    18    44    1
33    19    20    1
34    19    21    1
35    20    45    1
36    20    46    1
37    20    47    1
38    21    22    1
39    21    23    1
40    23    24    1
41    23    25    1
42    23    26    1
43    25    48    1
44    26    27    1
45    26    49    1
46    26    50    1
47    27    28    1
48    27    29    1
49    28    51    1
50    28    52    1
51    28    53    1
52    29    30    1
53    29    31    1
54    31    32    2
55    31    33    1
56    33    34    1
57    33    54    1
58    33    55    1
59    34    56    1
@<TRIPOS>SUBSTRUCTURE
1   ZINC000021981454 1     RESIDUE    1   A     ZIN   1
