@<TRIPOS>MOLECULE
ZINC000008101109
8    7    0    0    0
SMALL
USER_CHARGES
NO_NAME
@<TRIPOS>ATOM
1 O1        0.0021    -0.0041     0.0020 O.co2  1 <0>      -0.7400
2 C2       -0.0145     1.2150     0.0087 C.2    1 <0>      -0.0400
3 O3        1.0330     1.8389     0.0021 O.co2  1 <0>      -0.7000
4 P4       -1.5976     2.1006     0.0210 P.3    1 <0>       2.1900
5 O5       -1.6855     2.9808     1.2878 O.2    1 <0>      -1.1100
6 O6       -1.6974     2.9945    -1.2351 O.3    1 <0>      -1.1100
7 O7       -2.8070     1.0378     0.0210 O.3    1 <0>      -0.8800
8 H8       -3.6855     1.4418     0.0274 H      1 <0>       0.3900
@<TRIPOS>BOND
1    1    2 ar
2    2    3 ar
3    2    4 1
4    4    5 2
5    4    6 1
6    4    7 1
7    7    8 1
