@<TRIPOS>MOLECULE
ZINC000000009073
37    40    1     0     0
SMALL
USER_CHARGES
@<TRIPOS>ATOM
1      C1     -0.0178    1.4648    0.0101 C.3      1 ZINC000000009073    0.0200
2      N2      0.0021   -0.0041    0.0020 N.3      1 ZINC000000009073   -0.5400
3      C3     -1.3550   -0.5467   -0.0796 C.3      1 ZINC000000009073    0.0600
4      C4     -1.3238   -2.0432   -0.3422 C.3      1 ZINC000000009073   -0.0800
5      C5     -0.2140   -2.7299    0.4020 C.ar     1 ZINC000000009073   -0.0700
6      C6     -0.1668   -4.1181    0.3715 C.ar     1 ZINC000000009073   -0.1200
7      C7      0.8149   -4.8081    1.0540 C.ar     1 ZINC000000009073   -0.1200
8      C8      1.7681   -4.1171    1.7741 C.ar     1 ZINC000000009073   -0.1100
9      C9      1.7410   -2.7269    1.7938 C.ar     1 ZINC000000009073   -0.0400
10     C10     0.7392   -2.0321    1.1114 C.ar     1 ZINC000000009073   -0.0600
11     C11     0.7068   -0.5279    1.1812 C.3      1 ZINC000000009073    0.1300
12     H12     0.1805   -0.2188    2.0843 H        1 ZINC000000009073    0.0600
13     C13     2.1222    0.0457    1.1975 C.3      1 ZINC000000009073   -0.0700
14     C14     2.9499   -0.6127    2.2673 C.ar     1 ZINC000000009073   -0.0700
15     C15     3.8899    0.1127    2.9693 C.ar     1 ZINC000000009073   -0.1100
16     C16     4.6628   -0.5023    3.9390 C.ar     1 ZINC000000009073   -0.1300
17     C17     4.5004   -1.8511    4.2123 C.ar     1 ZINC000000009073    0.0800
18     O18     5.2691   -2.4513    5.1603 O.3      1 ZINC000000009073   -0.4900
19     C19     3.5496   -2.5902    3.5158 C.ar     1 ZINC000000009073    0.1000
20     O20     3.3854   -3.9136    3.7795 O.3      1 ZINC000000009073   -0.4800
21     C21     2.7596   -1.9677    2.5569 C.ar     1 ZINC000000009073   -0.0500
22     H22     1.0047    1.8421    0.0024 H        1 ZINC000000009073    0.0700
23     H23    -0.5450    1.8259   -0.8730 H        1 ZINC000000009073    0.0700
24     H24    -0.5280    1.8163    0.9069 H        1 ZINC000000009073    0.0300
25     H25    -1.8736   -0.3583    0.8604 H        1 ZINC000000009073    0.0400
26     H26    -1.8910   -0.0516   -0.8894 H        1 ZINC000000009073    0.0800
27     H27    -2.2758   -2.4758   -0.0348 H        1 ZINC000000009073    0.0800
28     H28    -1.1897   -2.2117   -1.4107 H        1 ZINC000000009073    0.0800
29     H29    -0.9078   -4.6644   -0.1931 H        1 ZINC000000009073    0.1200
30     H30     0.8368   -5.8875    1.0247 H        1 ZINC000000009073    0.1300
31     H31     2.5308   -4.6531    2.3195 H        1 ZINC000000009073    0.1600
32     H32     2.5893   -0.1231    0.2272 H        1 ZINC000000009073    0.0900
33     H33     2.0731    1.1174    1.3900 H        1 ZINC000000009073    0.0800
34     H34     4.0235    1.1640    2.7613 H        1 ZINC000000009073    0.1300
35     H35     5.3960    0.0722    4.4856 H        1 ZINC000000009073    0.1400
36     H36     4.8878   -2.4277    6.0486 H        1 ZINC000000009073    0.3900
37     H37     2.7345   -4.0993    4.4701 H        1 ZINC000000009073    0.3900
@<TRIPOS>BOND
1     1     2     1
2     1     22    1
3     1     23    1
4     1     24    1
5     2     11    1
6     2     3     1
7     3     4     1
8     3     25    1
9     3     26    1
10    4     5     1
11    4     27    1
12    4     28    1
13    5     10    ar
14    5     6     ar
15    6     7     ar
16    6     29    1
17    7     8     ar
18    7     30    1
19    8     9     ar
20    8     31    1
21    9     21    1
22    9     10    ar
23    10    11    1
24    11    12    1
25    11    13    1
26    13    14    1
27    13    32    1
28    13    33    1
29    14    21    ar
30    14    15    ar
31    15    16    ar
32    15    34    1
33    16    17    ar
34    16    35    1
35    17    18    1
36    17    19    ar
37    18    36    1
38    19    20    1
39    19    21    ar
40    20    37    1
@<TRIPOS>SUBSTRUCTURE
1   ZINC000000009073 1     RESIDUE    1   A     ZIN   1
