@<TRIPOS>MOLECULE
ZINC000000137884
28   29    0    0    0
SMALL
USER_CHARGES
NO_NAME
@<TRIPOS>ATOM
1 C1       -0.0184     1.5028     0.0103 C.3    1 <0>      -0.0900
2 C2        0.0021    -0.0041     0.0020 C.2    1 <0>      -0.2600
3 C3       -1.1526    -0.7039     0.0037 C.2    1 <0>       0.1700
4 N4       -1.1160    -2.0718    -0.0039 N.am   1 <0>      -0.5300
5 C5       -2.3687    -2.8312    -0.0021 C.3    1 <0>       0.3200
6 H6       -3.2174    -2.1561     0.1072 H      1 <0>       0.1300
7 C7       -2.4974    -3.6288    -1.2797 C.2    1 <0>      -0.2000
8 C8       -2.9247    -4.8319    -0.9753 C.2    1 <0>      -0.1400
9 C9       -3.1064    -4.9081     0.5235 C.3    1 <0>       0.1000
10 H10      -4.1615    -4.8130     0.7800 H      1 <0>       0.1000
11 C11      -2.5509    -6.2303     1.0564 C.3    1 <0>       0.0800
12 O12      -2.8341    -6.3376     2.4529 O.3    1 <0>      -0.5700
13 O13      -2.3622    -3.7987     1.0650 O.3    1 <0>      -0.3400
14 C14       0.0598    -2.7257    -0.0134 C.2    1 <0>       0.7000
15 O15       0.0693    -3.9416    -0.0204 O.2    1 <0>      -0.5200
16 N16       1.2256    -2.0531    -0.0157 N.am   1 <0>      -0.6600
17 C17       1.2322    -0.7047    -0.0135 C.2    1 <0>       0.5500
18 O18       2.2865    -0.0953    -0.0160 O.2    1 <0>      -0.5100
19 H19       1.0042     1.8801     0.0026 H      1 <0>       0.0800
20 H20      -0.5455     1.8639    -0.8728 H      1 <0>       0.0700
21 H21      -0.5286     1.8543     0.9071 H      1 <0>       0.0700
22 H22      -2.1006    -0.1866     0.0113 H      1 <0>       0.1800
23 H23      -2.2758    -3.2697    -2.2738 H      1 <0>       0.1500
24 H24      -3.1140    -5.6314    -1.6762 H      1 <0>       0.1600
25 H25      -3.0175    -7.0605     0.5262 H      1 <0>       0.0600
26 H26      -1.4724    -6.2602     0.9010 H      1 <0>       0.0600
27 H27      -2.5099    -7.1534     2.8585 H      1 <0>       0.3800
28 H28       2.0644    -2.5402    -0.0226 H      1 <0>       0.4300
@<TRIPOS>BOND
1    1    2 1
2    1   19 1
3    1   20 1
4    1   21 1
5    2   17 1
6    2    3 2
7    3    4 1
8    3   22 1
9    4    5 1
10    4   14 am
11    5    6 1
12    5   13 1
13    5    7 1
14    7    8 2
15    7   23 1
16    8    9 1
17    8   24 1
18    9   10 1
19    9   11 1
20    9   13 1
21   11   12 1
22   11   25 1
23   11   26 1
24   12   27 1
25   14   15 2
26   14   16 am
27   16   17 am
28   16   28 1
29   17   18 2
