@<TRIPOS>MOLECULE
ZINC000000014864
39    41    1     0     0
SMALL
USER_CHARGES
@<TRIPOS>ATOM
1      C1     -0.0187    1.5258    0.0104 C.3      1 ZINC000000014864   -0.1400
2      C2      0.0021   -0.0041    0.0020 C.3      1 ZINC000000014864   -0.0800
3      H3      0.5123   -0.3556   -0.8948 H        1 ZINC000000014864    0.1100
4      C4      0.7309   -0.5033    1.2229 C.ar     1 ZINC000000014864    0.1600
5      N5      0.2911   -0.2064    2.4349 N.ar     1 ZINC000000014864   -0.4600
6      C6      0.9224   -0.6394    3.5077 C.ar     1 ZINC000000014864    0.2900
7      N7      2.0093   -1.3796    3.4229 N.ar     1 ZINC000000014864   -0.4900
8      C8      2.5097   -1.7177    2.2454 C.ar     1 ZINC000000014864    0.1300
9      C9      1.8702   -1.2860    1.0916 C.ar     1 ZINC000000014864   -0.0100
10     F10     2.3503   -1.6105   -0.1288 F        1 ZINC000000014864   -0.1200
11     C11    -1.4333   -0.5336    0.0129 C.3      1 ZINC000000014864    0.1900
12     O12    -2.1022   -0.0728    1.1886 O.3      1 ZINC000000014864   -0.5000
13     C13    -1.4126   -2.0635    0.0045 C.3      1 ZINC000000014864    0.1400
14     N14    -2.7829   -2.5699   -0.1056 N.pl3    1 ZINC000000014864   -0.3700
15     C15    -3.2537   -3.4259   -1.0289 C.2      1 ZINC000000014864    0.2500
16     N16    -4.5228   -3.6291   -0.7843 N.2      1 ZINC000000014864   -0.5400
17     C17    -4.8963   -2.9231    0.2822 C.2      1 ZINC000000014864    0.1900
18     N18    -3.8641   -2.2621    0.7363 N.2      1 ZINC000000014864   -0.2800
19     C19    -2.1622   -0.0344   -1.2080 C.ar     1 ZINC000000014864   -0.1600
20     C20    -3.2918    0.7487   -1.0659 C.ar     1 ZINC000000014864   -0.0400
21     C21    -3.9611    1.2077   -2.1849 C.ar     1 ZINC000000014864   -0.1600
22     C22    -3.5003    0.8832   -3.4495 C.ar     1 ZINC000000014864    0.1400
23     F23    -4.1544    1.3323   -4.5430 F        1 ZINC000000014864   -0.1300
24     C24    -2.3687    0.0987   -3.5930 C.ar     1 ZINC000000014864   -0.1900
25     C25    -1.6963   -0.3559   -2.4720 C.ar     1 ZINC000000014864    0.1300
26     F26    -0.5919   -1.1216   -2.6106 F        1 ZINC000000014864   -0.1300
27     H27     1.0039    1.9031    0.0027 H        1 ZINC000000014864    0.0700
28     H28    -0.5459    1.8868   -0.8726 H        1 ZINC000000014864    0.0700
29     H29    -0.5289    1.8773    0.9072 H        1 ZINC000000014864    0.0700
30     H30     0.5385   -0.3801    4.4833 H        1 ZINC000000014864    0.2100
31     H31     3.4009   -2.3246    2.1831 H        1 ZINC000000014864    0.1800
32     H32    -2.1528    0.8902    1.2604 H        1 ZINC000000014864    0.3800
33     H33    -0.8263   -2.4142   -0.8449 H        1 ZINC000000014864    0.1200
34     H34    -0.9645   -2.4259    0.9297 H        1 ZINC000000014864    0.0900
35     H35    -2.6840   -3.8683   -1.8326 H        1 ZINC000000014864    0.2100
36     H36    -5.8897   -2.9036    0.7055 H        1 ZINC000000014864    0.2100
37     H37    -3.6522    1.0020   -0.0799 H        1 ZINC000000014864    0.1500
38     H38    -4.8441    1.8194   -2.0727 H        1 ZINC000000014864    0.1500
39     H39    -2.0085   -0.1550   -4.5791 H        1 ZINC000000014864    0.1500
@<TRIPOS>BOND
1     1     2     1
2     1     27    1
3     1     28    1
4     1     29    1
5     2     3     1
6     2     4     1
7     2     11    1
8     4     9     ar
9     4     5     ar
10    5     6     ar
11    6     7     ar
12    6     30    1
13    7     8     ar
14    8     9     ar
15    8     31    1
16    9     10    1
17    11    12    1
18    11    13    1
19    11    19    1
20    12    32    1
21    13    14    1
22    13    33    1
23    13    34    1
24    14    18    1
25    14    15    1
26    15    16    2
27    15    35    1
28    16    17    1
29    17    18    2
30    17    36    1
31    19    25    ar
32    19    20    ar
33    20    21    ar
34    20    37    1
35    21    22    ar
36    21    38    1
37    22    23    1
38    22    24    ar
39    24    25    ar
40    24    39    1
41    25    26    1
@<TRIPOS>SUBSTRUCTURE
1   ZINC000000014864 1     RESIDUE    1   A     ZIN   1
