@<TRIPOS>MOLECULE
ZINC000001530555
27    28    1     0     0
SMALL
USER_CHARGES
@<TRIPOS>ATOM
1      N1     -0.0165    1.3681    0.0096 N.pl3    1 ZINC000001530555   -0.8200
2      C2      0.0021   -0.0041    0.0020 C.2      1 ZINC000001530555    0.6600
3      N3     -1.1382   -0.6578    0.0040 N.2      1 ZINC000001530555   -0.5800
4      C4     -1.1685   -1.9955   -0.0031 C.2      1 ZINC000001530555    0.3100
5      C5      0.0312   -2.7162   -0.0129 C.2      1 ZINC000001530555   -0.1400
6      N6     -0.2906   -4.0328   -0.0184 N.2      1 ZINC000001530555   -0.4300
7      C7     -1.5853   -4.1598   -0.0128 C.2      1 ZINC000001530555    0.2300
8      N8     -2.1710   -2.9271   -0.0033 N.pl3    1 ZINC000001530555   -0.4600
9      C9     -3.6099   -2.6516    0.0052 C.3      1 ZINC000001530555    0.3000
10     O10    -4.3311   -3.8852    0.0015 O.3      1 ZINC000001530555   -0.3900
11     C11    -5.7514   -3.7281    0.0092 C.3      1 ZINC000001530555    0.0700
12     C12    -6.4170   -5.1057    0.0043 C.3      1 ZINC000001530555    0.0800
13     O13    -6.1057   -5.7894    1.2199 O.3      1 ZINC000001530555   -0.5700
14     C14     1.2511   -2.0002   -0.0145 C.2      1 ZINC000001530555    0.6000
15     O15     2.3198   -2.5868   -0.0229 O.2      1 ZINC000001530555   -0.5100
16     N16     1.2025   -0.6496   -0.0129 N.am     1 ZINC000001530555   -0.6600
17     H17     0.8168    1.8644    0.0043 H        1 ZINC000001530555    0.4200
18     H18    -0.8631    1.8416    0.0162 H        1 ZINC000001530555    0.4300
19     H19    -2.1170   -5.0999   -0.0150 H        1 ZINC000001530555    0.2200
20     H20    -3.8658   -2.0838    0.8998 H        1 ZINC000001530555    0.0800
21     H21    -3.8743   -2.0734   -0.8801 H        1 ZINC000001530555    0.0800
22     H22    -6.0518   -3.1826    0.9038 H        1 ZINC000001530555    0.0700
23     H23    -6.0603   -3.1722   -0.8761 H        1 ZINC000001530555    0.0700
24     H24    -7.4973   -4.9870   -0.0794 H        1 ZINC000001530555    0.0700
25     H25    -6.0483   -5.6843   -0.8427 H        1 ZINC000001530555    0.0600
26     H26    -6.4956   -6.6719    1.2858 H        1 ZINC000001530555    0.3800
27     H27     2.0260   -0.1371   -0.0140 H        1 ZINC000001530555    0.4200
@<TRIPOS>BOND
1     1     2     1
2     1     17    1
3     1     18    1
4     2     16    1
5     2     3     2
6     3     4     1
7     4     8     1
8     4     5     2
9     5     6     1
10    5     14    1
11    6     7     2
12    7     8     1
13    7     19    1
14    8     9     1
15    9     10    1
16    9     20    1
17    9     21    1
18    10    11    1
19    11    12    1
20    11    22    1
21    11    23    1
22    12    13    1
23    12    24    1
24    12    25    1
25    13    26    1
26    14    15    2
27    14    16    am
28    16    27    1
@<TRIPOS>SUBSTRUCTURE
1   ZINC000001530555 1     RESIDUE    1   A     ZIN   1
