@<TRIPOS>MOLECULE
ZINC000000601283
40   42    0    0    0
SMALL
USER_CHARGES
NO_NAME
@<TRIPOS>ATOM
1 C1       -0.0134     1.4188     0.0188 C.3    1 <0>       0.0300
2 O2        0.0046    -0.0101     0.0084 O.3    1 <0>      -0.3200
3 C3       -1.1991    -0.6426     0.0150 C.ar   1 <0>       0.1000
4 C4       -2.3739     0.1030     0.0253 C.ar   1 <0>      -0.1800
5 C5       -3.6017    -0.5233     0.0321 C.ar   1 <0>      -0.0900
6 C6       -3.6739    -1.9104     0.0290 C.ar   1 <0>       0.0800
7 C7       -2.4891    -2.6668     0.0186 C.ar   1 <0>      -0.0400
8 C8       -1.2511    -2.0235     0.0057 C.ar   1 <0>      -0.0900
9 C9       -2.9034    -4.0741     0.0184 C.2    1 <0>      -0.0800
10 C10      -1.9926    -5.2748     0.0094 C.3    1 <0>      -0.1300
11 C11      -1.6791    -5.6781     1.4272 C.2    1 <0>       0.5000
12 O12      -2.1514    -5.0489     2.3586 O.co2  1 <0>      -0.6900
13 O13      -0.9531    -6.6336     1.6428 O.co2  1 <0>      -0.7000
14 C14      -4.2435    -4.0921     0.0282 C.2    1 <0>       0.0700
15 C15      -5.0922    -5.3374     0.0320 C.3    1 <0>      -0.0900
16 N16      -4.7286    -2.8068     0.0347 N.am   1 <0>      -0.5100
17 C17      -6.0335    -2.4698     0.0455 C.2    1 <0>       0.6100
18 O18      -6.6073    -2.2280    -0.9981 O.2    1 <0>      -0.4400
19 C19      -6.7661    -2.3944     1.3253 C.ar   1 <0>      -0.1600
20 C20      -6.0857    -2.5619     2.5336 C.ar   1 <0>      -0.0400
21 C21      -6.7752    -2.4899     3.7254 C.ar   1 <0>      -0.1200
22 C22      -8.1399    -2.2520     3.7261 C.ar   1 <0>       0.0000
23 Cl23     -9.0009    -2.1622     5.2309 Cl     1 <0>      -0.0600
24 C24      -8.8203    -2.0850     2.5311 C.ar   1 <0>      -0.1300
25 C25      -8.1412    -2.1495     1.3329 C.ar   1 <0>      -0.0400
26 H26       1.0096     1.7951     0.0120 H      1 <0>       0.0900
27 H27      -0.5399     1.7819    -0.8639 H      1 <0>       0.0500
28 H28      -0.5235     1.7693     0.9160 H      1 <0>       0.0500
29 H29      -2.3233     1.1818     0.0285 H      1 <0>       0.1300
30 H30      -4.5077     0.0645     0.0401 H      1 <0>       0.1200
31 H31      -0.3388    -2.6014    -0.0024 H      1 <0>       0.1300
32 H32      -2.4857    -6.1010    -0.5028 H      1 <0>       0.0700
33 H33      -1.0676    -5.0253    -0.5104 H      1 <0>       0.0700
34 H34      -5.2893    -5.6396     1.0606 H      1 <0>       0.0800
35 H35      -6.0360    -5.1354    -0.4745 H      1 <0>       0.0600
36 H36      -4.5653    -6.1378    -0.4872 H      1 <0>       0.0900
37 H37      -5.0218    -2.7478     2.5344 H      1 <0>       0.1500
38 H38      -6.2504    -2.6196     4.6604 H      1 <0>       0.1500
39 H39      -9.8844    -1.9002     2.5381 H      1 <0>       0.1400
40 H40      -8.6727    -2.0189     0.4019 H      1 <0>       0.1400
@<TRIPOS>BOND
1    1    2 1
2    1   26 1
3    1   27 1
4    1   28 1
5    2    3 1
6    3    8 ar
7    3    4 ar
8    4    5 ar
9    4   29 1
10    5    6 ar
11    5   30 1
12    6   16 1
13    6    7 ar
14    7    8 ar
15    7    9 1
16    8   31 1
17    9   10 1
18    9   14 2
19   10   11 1
20   10   32 1
21   10   33 1
22   11   12 ar
23   11   13 ar
24   14   15 1
25   14   16 1
26   15   34 1
27   15   35 1
28   15   36 1
29   16   17 am
30   17   18 2
31   17   19 1
32   19   25 ar
33   19   20 ar
34   20   21 ar
35   20   37 1
36   21   22 ar
37   21   38 1
38   22   23 1
39   22   24 ar
40   24   25 ar
41   24   39 1
42   25   40 1
