@<TRIPOS>MOLECULE
ZINC000014261579
83    88    1     0     0
SMALL
USER_CHARGES
@<TRIPOS>ATOM
1      C1     -1.4972   -0.0056   -0.7410 C.3      1 ZINC000014261579   -0.1500
2      C2     -1.7476   -1.4947   -0.4940 C.3      1 ZINC000014261579   -0.0800
3      C3     -1.3772   -2.2889   -1.7482 C.3      1 ZINC000014261579   -0.1400
4      C4     -0.9027   -1.9609    0.6635 C.2      1 ZINC000014261579    0.4600
5      O5     -0.0880   -2.8384    0.5020 O.2      1 ZINC000014261579   -0.5000
6      O6     -1.0553   -1.4013    1.8740 O.3      1 ZINC000014261579   -0.3400
7      C7     -0.2079   -1.9000    2.9424 C.3      1 ZINC000014261579    0.0200
8      C8     -0.5185   -1.1591    4.2174 C.2      1 ZINC000014261579    0.3800
9      O9     -1.3666   -0.2995    4.2249 O.2      1 ZINC000014261579   -0.4000
10     C10     0.2292   -1.4910    5.4830 C.3      1 ZINC000014261579    0.0500
11     O11     0.7688   -2.8258    5.4510 O.3      1 ZINC000014261579   -0.3500
12     C12     2.0337   -2.7328    6.1394 C.3      1 ZINC000014261579    0.2300
13     H13     1.8800   -2.7332    7.2185 H        1 ZINC000014261579    0.0900
14     C14     2.9491   -3.8890    5.7317 C.3      1 ZINC000014261579   -0.0800
15     C15     3.2986   -3.7638    4.2475 C.3      1 ZINC000014261579   -0.1100
16     C16     4.2140   -4.9200    3.8398 C.3      1 ZINC000014261579   -0.1200
17     C17     5.4972   -4.8723    4.6716 C.3      1 ZINC000014261579   -0.1200
18     C18     5.1477   -4.9975    6.1559 C.3      1 ZINC000014261579   -0.1200
19     C19     4.2323   -3.8413    6.5636 C.3      1 ZINC000014261579   -0.1100
20     O20     2.5906   -1.4719    5.7109 O.3      1 ZINC000014261579   -0.3600
21     C21     1.4668   -0.5675    5.6864 C.3      1 ZINC000014261579    0.0700
22     H22     1.5571    0.1871    4.9050 H        1 ZINC000014261579    0.1200
23     C23     1.3264    0.0593    7.1004 C.3      1 ZINC000014261579   -0.1300
24     C24     0.4344   -0.9443    7.8387 C.3      1 ZINC000014261579   -0.1000
25     H25     1.0064   -1.8312    8.1114 H        1 ZINC000014261579    0.0800
26     C26    -0.3065   -0.4024    9.0478 C.3      1 ZINC000014261579   -0.0800
27     H27    -0.9278    0.4424    8.7504 H        1 ZINC000014261579    0.1000
28     C28     0.6963    0.0441   10.1136 C.3      1 ZINC000014261579   -0.1100
29     C29    -0.0540    0.6257   11.3160 C.3      1 ZINC000014261579   -0.0900
30     C30    -1.0447   -0.4156   11.8018 C.2      1 ZINC000014261579   -0.0300
31     C31    -1.0490   -0.7482   13.0852 C.2      1 ZINC000014261579   -0.2300
32     C32    -1.9800   -1.7693   13.5898 C.2      1 ZINC000014261579    0.4100
33     O33    -2.0145   -2.0493   14.7735 O.2      1 ZINC000014261579   -0.4600
34     C34    -2.8691   -2.4453   12.6298 C.2      1 ZINC000014261579   -0.2200
35     C35    -2.8530   -2.0913   11.3545 C.2      1 ZINC000014261579   -0.0600
36     C36    -1.9804   -1.0195   10.7968 C.3      1 ZINC000014261579   -0.0100
37     C37    -2.8864    0.0963   10.2726 C.3      1 ZINC000014261579   -0.1300
38     C38    -1.1943   -1.5346    9.5885 C.3      1 ZINC000014261579   -0.0500
39     H39    -0.5514   -2.3567    9.9029 H        1 ZINC000014261579    0.0800
40     C40    -2.1699   -2.0372    8.5284 C.3      1 ZINC000014261579    0.1100
41     H41    -2.7142   -2.8948    8.9238 H        1 ZINC000014261579    0.0600
42     O42    -3.0999   -0.9970    8.2197 O.3      1 ZINC000014261579   -0.5400
43     C43    -1.4420   -2.4553    7.2411 C.3      1 ZINC000014261579   -0.1300
44     C44    -0.6344   -1.2828    6.7214 C.3      1 ZINC000014261579   -0.0600
45     C45    -1.5431   -0.0644    6.5465 C.3      1 ZINC000014261579   -0.1400
46     H46    -0.4440    0.1522   -0.9731 H        1 ZINC000014261579    0.0600
47     H47    -2.1083    0.3316   -1.5782 H        1 ZINC000014261579    0.0700
48     H48    -1.7611    0.5602    0.1525 H        1 ZINC000014261579    0.0700
49     H49    -2.8008   -1.6524   -0.2619 H        1 ZINC000014261579    0.1100
50     H50    -0.3240   -2.1312   -1.9803 H        1 ZINC000014261579    0.0700
51     H51    -1.5555   -3.3497   -1.5723 H        1 ZINC000014261579    0.0600
52     H52    -1.9883   -1.9517   -2.5854 H        1 ZINC000014261579    0.0700
53     H53    -0.3932   -2.9644    3.0863 H        1 ZINC000014261579    0.1100
54     H54     0.8383   -1.7458    2.6783 H        1 ZINC000014261579    0.1100
55     H55     2.4381   -4.8359    5.9061 H        1 ZINC000014261579    0.0900
56     H56     2.3844   -3.7978    3.6548 H        1 ZINC000014261579    0.0600
57     H57     3.8096   -2.8170    4.0731 H        1 ZINC000014261579    0.0700
58     H58     3.7029   -5.8669    4.0141 H        1 ZINC000014261579    0.0600
59     H59     4.4629   -4.8309    2.7823 H        1 ZINC000014261579    0.0600
60     H60     6.1493   -5.6960    4.3812 H        1 ZINC000014261579    0.0600
61     H61     6.0082   -3.9255    4.4973 H        1 ZINC000014261579    0.0600
62     H62     4.6366   -5.9443    6.3303 H        1 ZINC000014261579    0.0600
63     H63     6.0619   -4.9635    6.7486 H        1 ZINC000014261579    0.0600
64     H64     4.7433   -2.8944    6.3893 H        1 ZINC000014261579    0.0700
65     H65     3.9833   -3.9305    7.6210 H        1 ZINC000014261579    0.0600
66     H66     2.2996    0.1385    7.5848 H        1 ZINC000014261579    0.0900
67     H67     0.8431    1.0346    7.0430 H        1 ZINC000014261579    0.0900
68     H68     1.2890   -0.8122   10.4354 H        1 ZINC000014261579    0.0700
69     H69     1.3558    0.8044    9.6952 H        1 ZINC000014261579    0.0800
70     H70     0.6525    0.8612   12.1120 H        1 ZINC000014261579    0.0800
71     H71    -0.5862    1.5285   11.0163 H        1 ZINC000014261579    0.0900
72     H72    -0.3630   -0.2658   13.7658 H        1 ZINC000014261579    0.1400
73     H73    -3.5326   -3.2285   12.9657 H        1 ZINC000014261579    0.1400
74     H74    -3.5126   -2.6117   10.6759 H        1 ZINC000014261579    0.1300
75     H75    -3.2070    0.7246   11.1036 H        1 ZINC000014261579    0.0400
76     H76    -2.3375    0.7010    9.5507 H        1 ZINC000014261579    0.0800
77     H77    -3.7602   -0.3416    9.7901 H        1 ZINC000014261579    0.1000
78     H78    -3.7549   -1.2405    7.5513 H        1 ZINC000014261579    0.3700
79     H79    -0.7589   -3.2783    7.4517 H        1 ZINC000014261579    0.0800
80     H80    -2.1676   -2.7581    6.4861 H        1 ZINC000014261579    0.0700
81     H81    -1.8624    0.2942    7.5250 H        1 ZINC000014261579    0.1000
82     H82    -0.9969    0.7253    6.0306 H        1 ZINC000014261579    0.0500
83     H83    -2.4176   -0.3447    5.9592 H        1 ZINC000014261579    0.0600
@<TRIPOS>BOND
1     1     2     1
2     1     46    1
3     1     47    1
4     1     48    1
5     2     3     1
6     2     4     1
7     2     49    1
8     3     50    1
9     3     51    1
10    3     52    1
11    4     5     2
12    4     6     1
13    6     7     1
14    7     8     1
15    7     53    1
16    7     54    1
17    8     9     2
18    8     10    1
19    10    21    1
20    10    44    1
21    10    11    1
22    11    12    1
23    12    13    1
24    12    14    1
25    12    20    1
26    14    19    1
27    14    15    1
28    14    55    1
29    15    16    1
30    15    56    1
31    15    57    1
32    16    17    1
33    16    58    1
34    16    59    1
35    17    18    1
36    17    60    1
37    17    61    1
38    18    19    1
39    18    62    1
40    18    63    1
41    19    64    1
42    19    65    1
43    20    21    1
44    21    22    1
45    21    23    1
46    23    24    1
47    23    66    1
48    23    67    1
49    24    25    1
50    24    44    1
51    24    26    1
52    26    27    1
53    26    38    1
54    26    28    1
55    28    29    1
56    28    68    1
57    28    69    1
58    29    30    1
59    29    70    1
60    29    71    1
61    30    36    1
62    30    31    2
63    31    32    1
64    31    72    1
65    32    33    2
66    32    34    1
67    34    35    2
68    34    73    1
69    35    36    1
70    35    74    1
71    36    37    1
72    36    38    1
73    37    75    1
74    37    76    1
75    37    77    1
76    38    39    1
77    38    40    1
78    40    41    1
79    40    42    1
80    40    43    1
81    42    78    1
82    43    44    1
83    43    79    1
84    43    80    1
85    44    45    1
86    45    81    1
87    45    82    1
88    45    83    1
@<TRIPOS>SUBSTRUCTURE
1   ZINC000014261579 1     RESIDUE    1   A     ZIN   1
