@<TRIPOS>MOLECULE
ZINC000000895081
18    17    1     0     0
SMALL
USER_CHARGES
@<TRIPOS>ATOM
1      O1      0.0021   -0.0041    0.0020 O.co2    1 ZINC000000895081   -0.6400
2      C2     -0.0145    1.2150    0.0087 C.2      1 ZINC000000895081    0.4900
3      O3      1.0330    1.8389    0.0021 O.co2    1 ZINC000000895081   -0.7600
4      C4     -1.3296    1.9507    0.0190 C.3      1 ZINC000000895081   -0.1900
5      C5     -2.4790    0.9408    0.0189 C.3      1 ZINC000000895081    0.1000
6      O6     -2.4551    0.1920    1.2358 O.3      1 ZINC000000895081   -0.5000
7      C7     -3.8112    1.6842   -0.0964 C.3      1 ZINC000000895081   -0.1900
8      C8     -4.9432    0.6895   -0.0965 C.2      1 ZINC000000895081    0.4900
9      O9     -4.7064   -0.5035   -0.0121 O.co2    1 ZINC000000895081   -0.6400
10     O10    -6.0959    1.0777   -0.1809 O.co2    1 ZINC000000895081   -0.7600
11     C11    -2.3239    0.0033   -1.1508 C.2      1 ZINC000000895081    0.5700
12     O12    -2.2041   -1.1949   -0.9600 O.co2    1 ZINC000000895081   -0.6700
13     O13    -2.3182    0.4432   -2.2879 O.co2    1 ZINC000000895081   -0.7600
14     H14    -1.3917    2.5717    0.9126 H        1 ZINC000000895081    0.0300
15     H15    -1.4001    2.5813   -0.8673 H        1 ZINC000000895081    0.0500
16     H16    -2.5502    0.7324    2.0321 H        1 ZINC000000895081    0.3000
17     H17    -3.9233    2.3623    0.7496 H        1 ZINC000000895081    0.0300
18     H18    -3.8294    2.2554   -1.0247 H        1 ZINC000000895081    0.0500
@<TRIPOS>BOND
1     1     2     ar
2     2     3     ar
3     2     4     1
4     4     5     1
5     4     14    1
6     4     15    1
7     5     6     1
8     5     7     1
9     5     11    1
10    6     16    1
11    7     8     1
12    7     17    1
13    7     18    1
14    8     9     ar
15    8     10    ar
16    11    12    ar
17    11    13    ar
@<TRIPOS>SUBSTRUCTURE
1   ZINC000000895081 1     RESIDUE    1   A     ZIN   1
