@<TRIPOS>MOLECULE
ZINC000000895360
17   17    0    0    0
SMALL
USER_CHARGES
NO_NAME
@<TRIPOS>ATOM
1 O1        0.0021    -0.0041     0.0020 O.co2  1 <0>      -0.6300
2 C2       -0.0145     1.2150     0.0087 C.2    1 <0>       0.4900
3 O3        1.0330     1.8389     0.0021 O.co2  1 <0>      -0.6700
4 C4       -1.3296     1.9507     0.0190 C.3    1 <0>      -0.0500
5 H5       -1.9758     1.5441     0.7969 H      1 <0>       0.1300
6 C6       -2.0164     1.8175    -1.3566 C.3    1 <0>      -0.1200
7 C7       -2.6487     3.2182    -1.5686 C.3    1 <0>      -0.1400
8 C8       -1.5882     4.1418    -0.9192 C.3    1 <0>       0.0000
9 N9       -1.0990     3.3871     0.2586 N.4    1 <0>      -0.5000
10 H10      -1.6005     3.6820     1.0830 H      1 <0>       0.4100
11 H11      -0.1117     3.5542     0.3828 H      1 <0>       0.4300
12 H12      -1.2832     1.6039    -2.1343 H      1 <0>       0.0900
13 H13      -2.7869     1.0469    -1.3296 H      1 <0>       0.1000
14 H14      -2.7614     3.4391    -2.6300 H      1 <0>       0.1100
15 H15      -3.6048     3.2974    -1.0512 H      1 <0>       0.0900
16 H16      -0.7717     4.3309    -1.6161 H      1 <0>       0.1300
17 H17      -2.0442     5.0804    -0.6040 H      1 <0>       0.1300
@<TRIPOS>BOND
1    1    2 ar
2    2    3 ar
3    2    4 1
4    4    5 1
5    4    9 1
6    4    6 1
7    6    7 1
8    6   12 1
9    6   13 1
10    7    8 1
11    7   14 1
12    7   15 1
13    8    9 1
14    8   16 1
15    8   17 1
16    9   10 1
17    9   11 1
