@<TRIPOS>MOLECULE
ZINC000000896666
22   23    0    0    0
SMALL
USER_CHARGES
NO_NAME
@<TRIPOS>ATOM
1 N1       -0.0116     1.0048     0.0076 N.4    1 <0>      -0.6100
2 H2        0.0021    -0.0041     0.0020 H      1 <0>       0.4300
3 H3        0.9350     1.3541     0.0004 H      1 <0>       0.4400
4 H4       -0.4996     1.3391    -0.8099 H      1 <0>       0.4400
5 C5       -0.6992     1.4786     1.2162 C.3    1 <0>      -0.0700
6 H6       -1.1549     2.4659     1.1413 H      1 <0>       0.1900
7 C7       -1.4122     0.4349     2.0783 C.3    1 <0>      -0.1500
8 C8       -0.1102     1.0731     2.5688 C.3    1 <0>      -0.0800
9 H9       -0.1788     1.7935     3.3840 H      1 <0>       0.1500
10 C10       1.1305     0.2178     2.5599 C.ar   1 <0>      -0.1000
11 C11       1.1096    -1.0239     1.9527 C.ar   1 <0>      -0.1500
12 C12       2.2477    -1.8085     1.9445 C.ar   1 <0>      -0.1100
13 C13       3.4068    -1.3512     2.5431 C.ar   1 <0>      -0.1000
14 C14       3.4279    -0.1092     3.1495 C.ar   1 <0>      -0.1000
15 C15       2.2910     0.6772     3.1540 C.ar   1 <0>      -0.1000
16 H16      -2.3369     0.7357     2.5709 H      1 <0>       0.1400
17 H17      -1.3711    -0.6033     1.7486 H      1 <0>       0.1200
18 H18       0.2040    -1.3812     1.4850 H      1 <0>       0.1200
19 H19       2.2312    -2.7789     1.4708 H      1 <0>       0.1300
20 H20       4.2957    -1.9645     2.5374 H      1 <0>       0.1300
21 H21       4.3334     0.2480     3.6175 H      1 <0>       0.1400
22 H22       2.3075     1.6477     3.6277 H      1 <0>       0.1300
@<TRIPOS>BOND
1    1    2 1
2    1    3 1
3    1    4 1
4    1    5 1
5    5    6 1
6    5    8 1
7    5    7 1
8    7    8 1
9    7   16 1
10    7   17 1
11    8    9 1
12    8   10 1
13   10   15 ar
14   10   11 ar
15   11   12 ar
16   11   18 1
17   12   13 ar
18   12   19 1
19   13   14 ar
20   13   20 1
21   14   15 ar
22   14   21 1
23   15   22 1
