@<TRIPOS>MOLECULE
ZINC000003806413
47    48    1     0     0
SMALL
USER_CHARGES
@<TRIPOS>ATOM
1      C1     -0.0187    1.5258    0.0104 C.3      1 ZINC000003806413   -0.1600
2      C2      0.0021   -0.0041    0.0020 C.3      1 ZINC000003806413   -0.1200
3      C3     -1.4333   -0.5336    0.0129 C.3      1 ZINC000003806413   -0.1200
4      C4     -1.4126   -2.0635    0.0045 C.3      1 ZINC000003806413   -0.1200
5      C5     -2.8479   -2.5931    0.0153 C.3      1 ZINC000003806413    0.0900
6      O6     -2.8283   -4.0449    0.0073 O.3      1 ZINC000003806413   -0.3600
7      C7     -4.0192   -4.6723    0.0153 C.2      1 ZINC000003806413    0.6400
8      O8     -5.0469   -4.0246    0.0286 O.2      1 ZINC000003806413   -0.4800
9      N9     -4.0715   -6.0190    0.0086 N.am     1 ZINC000003806413   -0.6200
10     C10    -5.2946   -6.6634    0.0168 C.2      1 ZINC000003806413    0.4900
11     N11    -6.4180   -5.9602    0.0258 N.2      1 ZINC000003806413   -0.5100
12     C12    -7.6028   -6.5691    0.0333 C.2      1 ZINC000003806413    0.6500
13     O13    -8.6218   -5.8984    0.0415 O.2      1 ZINC000003806413   -0.5000
14     N14    -7.6943   -7.9117    0.0316 N.am     1 ZINC000003806413   -0.5200
15     C15    -9.0117   -8.5526    0.0395 C.3      1 ZINC000003806413    0.3000
16     H16    -8.8993   -9.6317   -0.0650 H        1 ZINC000003806413    0.1300
17     O17    -9.8121   -8.0380   -1.0378 O.3      1 ZINC000003806413   -0.3500
18     C18   -11.1784   -8.0106   -0.5720 C.3      1 ZINC000003806413    0.0500
19     H19   -11.6173   -9.0076   -0.6109 H        1 ZINC000003806413    0.0900
20     C20   -12.0092   -7.0255   -1.3969 C.3      1 ZINC000003806413   -0.1500
21     C21   -11.0507   -7.5273    0.8951 C.3      1 ZINC000003806413    0.0500
22     H22   -10.9490   -6.4430    0.9400 H        1 ZINC000003806413    0.1000
23     O23   -12.1650   -7.9653    1.6752 O.3      1 ZINC000003806413   -0.5500
24     C24    -9.7448   -8.2271    1.3553 C.3      1 ZINC000003806413    0.0800
25     H25    -9.1464   -7.5531    1.9683 H        1 ZINC000003806413    0.0800
26     O26   -10.0459   -9.4232    2.0769 O.3      1 ZINC000003806413   -0.5500
27     C27    -6.5666   -8.6784    0.0221 C.2      1 ZINC000003806413    0.1800
28     C28    -5.3536   -8.0721    0.0098 C.2      1 ZINC000003806413   -0.0700
29     F29    -4.2196   -8.8063    0.0002 F        1 ZINC000003806413   -0.1100
30     H30     1.0039    1.9031    0.0027 H        1 ZINC000003806413    0.0600
31     H31    -0.5459    1.8868   -0.8726 H        1 ZINC000003806413    0.0500
32     H32    -0.5289    1.8773    0.9072 H        1 ZINC000003806413    0.0500
33     H33     0.5123   -0.3556   -0.8948 H        1 ZINC000003806413    0.0600
34     H34     0.5293   -0.3651    0.8851 H        1 ZINC000003806413    0.0600
35     H35    -1.9435   -0.1821    0.9097 H        1 ZINC000003806413    0.0700
36     H36    -1.9605   -0.1726   -0.8702 H        1 ZINC000003806413    0.0700
37     H37    -0.9024   -2.4150   -0.8923 H        1 ZINC000003806413    0.0800
38     H38    -0.8854   -2.4246    0.8875 H        1 ZINC000003806413    0.0800
39     H39    -3.3581   -2.2415    0.9121 H        1 ZINC000003806413    0.0800
40     H40    -3.3751   -2.2320   -0.8677 H        1 ZINC000003806413    0.0800
41     H41    -3.2509   -6.5362   -0.0020 H        1 ZINC000003806413    0.4300
42     H42   -12.0205   -7.3437   -2.4394 H        1 ZINC000003806413    0.0700
43     H43   -13.0293   -7.0006   -1.0136 H        1 ZINC000003806413    0.0800
44     H44   -11.5697   -6.0306   -1.3254 H        1 ZINC000003806413    0.0700
45     H45   -13.0171   -7.6256    1.3692 H        1 ZINC000003806413    0.3900
46     H46   -10.5583   -9.2772    2.8839 H        1 ZINC000003806413    0.4000
47     H47    -6.6387   -9.7560    0.0207 H        1 ZINC000003806413    0.2000
@<TRIPOS>BOND
1     1     2     1
2     1     30    1
3     1     31    1
4     1     32    1
5     2     3     1
6     2     33    1
7     2     34    1
8     3     4     1
9     3     35    1
10    3     36    1
11    4     5     1
12    4     37    1
13    4     38    1
14    5     6     1
15    5     39    1
16    5     40    1
17    6     7     1
18    7     8     2
19    7     9     am
20    9     10    1
21    9     41    1
22    10    28    1
23    10    11    2
24    11    12    1
25    12    13    2
26    12    14    am
27    14    15    1
28    14    27    1
29    15    16    1
30    15    24    1
31    15    17    1
32    17    18    1
33    18    19    1
34    18    20    1
35    18    21    1
36    20    42    1
37    20    43    1
38    20    44    1
39    21    22    1
40    21    23    1
41    21    24    1
42    23    45    1
43    24    25    1
44    24    26    1
45    26    46    1
46    27    28    2
47    27    47    1
48    28    29    1
@<TRIPOS>SUBSTRUCTURE
1   ZINC000003806413 1     RESIDUE    1   A     ZIN   1
