@<TRIPOS>MOLECULE
ZINC000000007295
38    40    1     0     0
SMALL
USER_CHARGES
@<TRIPOS>ATOM
1      C1     -0.0184    1.5028    0.0103 C.3      1 ZINC000000007295   -0.1500
2      C2      0.0021   -0.0041    0.0020 C.2      1 ZINC000000007295    0.4600
3      O3      0.0203   -0.6138    1.0450 O.2      1 ZINC000000007295   -0.5100
4      O4      0.0001   -0.6689   -1.1641 O.3      1 ZINC000000007295   -0.3400
5      C5      0.0205   -2.1192   -1.0960 C.3      1 ZINC000000007295    0.1500
6      H6     -0.4839   -2.4275   -0.1803 H        1 ZINC000000007295    0.1000
7      C7     -0.7510   -2.6634   -2.2726 C.3      1 ZINC000000007295   -0.0800
8      C8     -0.9435   -4.1480   -2.1897 C.ar     1 ZINC000000007295   -0.0800
9      C9     -2.2036   -4.6740   -1.9561 C.ar     1 ZINC000000007295   -0.0900
10     C10    -2.3639   -6.0452   -1.8634 C.ar     1 ZINC000000007295   -0.1100
11     C11    -1.2767   -6.8884   -2.0000 C.ar     1 ZINC000000007295   -0.1000
12     C12    -0.0196   -6.3623   -2.2404 C.ar     1 ZINC000000007295   -0.1200
13     C13     0.1289   -4.9866   -2.3422 C.ar     1 ZINC000000007295    0.1300
14     N14     1.3639   -4.4095   -2.6354 N.am     1 ZINC000000007295   -0.5300
15     C15     1.9223   -4.6659   -3.8349 C.2      1 ZINC000000007295    0.7100
16     N16     1.2879   -5.4632   -4.7171 N.am     1 ZINC000000007295   -0.8600
17     O17     2.9985   -4.1779   -4.1212 O.2      1 ZINC000000007295   -0.5600
18     C18     2.0483   -3.5809   -1.7500 C.ar     1 ZINC000000007295    0.1900
19     C19     3.4195   -3.8254   -1.6184 C.ar     1 ZINC000000007295   -0.1100
20     C20     4.1891   -3.0864   -0.7486 C.ar     1 ZINC000000007295   -0.1000
21     C21     3.5927   -2.0921    0.0050 C.ar     1 ZINC000000007295   -0.1200
22     C22     2.2467   -1.8423   -0.1317 C.ar     1 ZINC000000007295   -0.1100
23     C23     1.4564   -2.5736   -1.0264 C.ar     1 ZINC000000007295   -0.1200
24     H24     1.0042    1.8801    0.0026 H        1 ZINC000000007295    0.1100
25     H25    -0.5455    1.8639   -0.8728 H        1 ZINC000000007295    0.1000
26     H26    -0.5286    1.8543    0.9071 H        1 ZINC000000007295    0.1100
27     H27    -1.7282   -2.1818   -2.3076 H        1 ZINC000000007295    0.0900
28     H28    -0.2100   -2.4279   -3.1892 H        1 ZINC000000007295    0.0900
29     H29    -3.0548   -4.0183   -1.8467 H        1 ZINC000000007295    0.1300
30     H30    -3.3448   -6.4596   -1.6829 H        1 ZINC000000007295    0.1300
31     H31    -1.4084   -7.9572   -1.9187 H        1 ZINC000000007295    0.1400
32     H32     0.8349   -7.0141   -2.3471 H        1 ZINC000000007295    0.1300
33     H33     0.4293   -5.8525   -4.4886 H        1 ZINC000000007295    0.4000
34     H34     1.6898   -5.6477   -5.5804 H        1 ZINC000000007295    0.4200
35     H35     3.8805   -4.6048   -2.2070 H        1 ZINC000000007295    0.1300
36     H36     5.2474   -3.2809   -0.6560 H        1 ZINC000000007295    0.1300
37     H37     4.1826   -1.5123    0.6995 H        1 ZINC000000007295    0.1300
38     H38     1.7910   -1.0644    0.4630 H        1 ZINC000000007295    0.1300
@<TRIPOS>BOND
1     1     2     1
2     1     24    1
3     1     25    1
4     1     26    1
5     2     3     2
6     2     4     1
7     4     5     1
8     5     6     1
9     5     23    1
10    5     7     1
11    7     8     1
12    7     27    1
13    7     28    1
14    8     13    ar
15    8     9     ar
16    9     10    ar
17    9     29    1
18    10    11    ar
19    10    30    1
20    11    12    ar
21    11    31    1
22    12    13    ar
23    12    32    1
24    13    14    1
25    14    15    am
26    14    18    1
27    15    16    am
28    15    17    2
29    16    33    1
30    16    34    1
31    18    23    ar
32    18    19    ar
33    19    20    ar
34    19    35    1
35    20    21    ar
36    20    36    1
37    21    22    ar
38    21    37    1
39    22    23    ar
40    22    38    1
@<TRIPOS>SUBSTRUCTURE
1   ZINC000000007295 1     RESIDUE    1   A     ZIN   1
