@<TRIPOS>MOLECULE
ZINC000000001773
48    53    1     0     0
SMALL
USER_CHARGES
@<TRIPOS>ATOM
1      O1      0.0017   -0.1250    0.6412 O.2      1 ZINC000000001773   -0.4300
2      C2     -0.0271    1.0791    0.5532 C.2      1 ZINC000000001773    0.3500
3      C3     -1.3587    1.7674    0.5828 C.3      1 ZINC000000001773   -0.1600
4      C4     -1.2746    3.0410    1.4256 C.3      1 ZINC000000001773   -0.1400
5      C5     -0.1778    3.9385    0.8538 C.3      1 ZINC000000001773    0.1700
6      O6     -0.4660    4.2365   -0.5138 O.3      1 ZINC000000001773   -0.5300
7      C7     -0.0883    5.2337    1.6670 C.3      1 ZINC000000001773    0.0700
8      H8     -1.0383    5.7587    1.5669 H        1 ZINC000000001773    0.1000
9      C9      0.1778    5.0263    3.1490 C.3      1 ZINC000000001773   -0.1100
10     C10     1.0136    3.8237    3.4428 C.ar     1 ZINC000000001773   -0.0300
11     C11     1.4209    3.4285    4.7050 C.ar     1 ZINC000000001773   -0.1300
12     C12     2.1530    2.2636    4.8690 C.ar     1 ZINC000000001773   -0.1000
13     C13     2.5062    1.4264    3.8132 C.ar     1 ZINC000000001773    0.0900
14     O14     3.2017    0.2762    4.0201 O.3      1 ZINC000000001773   -0.4800
15     C15     2.1124    1.8221    2.5300 C.ar     1 ZINC000000001773    0.0900
16     C16     1.4260    3.0205    2.4048 C.ar     1 ZINC000000001773   -0.1700
17     C17     1.1698    3.2432    0.9515 C.3      1 ZINC000000001773   -0.0200
18     C18     2.2533    4.1430    0.3636 C.3      1 ZINC000000001773   -0.1000
19     C19     2.2696    5.4642    1.1410 C.3      1 ZINC000000001773    0.0600
20     N20     0.9604    6.0889    1.0954 N.3      1 ZINC000000001773   -0.5200
21     C21     0.9852    7.4107    1.7359 C.3      1 ZINC000000001773    0.0900
22     C22    -0.4296    7.9927    1.7594 C.3      1 ZINC000000001773   -0.1500
23     C23    -1.0703    8.2372    3.1271 C.3      1 ZINC000000001773   -0.1800
24     C24    -0.5974    9.4211    2.2812 C.3      1 ZINC000000001773   -0.1700
25     C25     1.2718    1.8196    0.4253 C.3      1 ZINC000000001773    0.0500
26     H26     1.6318    1.7989   -0.6033 H        1 ZINC000000001773    0.1500
27     O27     2.2437    1.2327    1.3220 O.3      1 ZINC000000001773   -0.2600
28     H28    -1.6545    2.0258   -0.4340 H        1 ZINC000000001773    0.1100
29     H29    -2.1024    1.0972    1.0140 H        1 ZINC000000001773    0.1000
30     H30    -2.2298    3.5649    1.3922 H        1 ZINC000000001773    0.0900
31     H31    -1.0338    2.7816    2.4565 H        1 ZINC000000001773    0.0800
32     H32    -1.3068    4.6951   -0.6476 H        1 ZINC000000001773    0.3800
33     H33     0.6861    5.9082    3.5389 H        1 ZINC000000001773    0.0900
34     H34    -0.7774    4.9216    3.6636 H        1 ZINC000000001773    0.0900
35     H35     1.1675    4.0304    5.5652 H        1 ZINC000000001773    0.1300
36     H36     2.4660    1.9911    5.8661 H        1 ZINC000000001773    0.1400
37     H37     2.6439   -0.4981    4.1763 H        1 ZINC000000001773    0.3900
38     H38     3.2232    3.6539    0.4533 H        1 ZINC000000001773    0.0700
39     H39     2.0357    4.3391   -0.6863 H        1 ZINC000000001773    0.0900
40     H40     2.5370    5.2703    2.1797 H        1 ZINC000000001773    0.0400
41     H41     3.0043    6.1365    0.6978 H        1 ZINC000000001773    0.0800
42     H42     1.3548    7.3130    2.7566 H        1 ZINC000000001773    0.0400
43     H43     1.6418    8.0746    1.1736 H        1 ZINC000000001773    0.0800
44     H44    -1.0827    7.6737    0.9471 H        1 ZINC000000001773    0.1100
45     H45    -2.1452    8.0789    3.2149 H        1 ZINC000000001773    0.0900
46     H46    -0.4839    7.9834    4.0102 H        1 ZINC000000001773    0.0900
47     H47     0.3002    9.9463    2.6078 H        1 ZINC000000001773    0.0900
48     H48    -1.3611   10.0418    1.8125 H        1 ZINC000000001773    0.1000
@<TRIPOS>BOND
1     1     2     2
2     2     25    1
3     2     3     1
4     3     4     1
5     3     28    1
6     3     29    1
7     4     5     1
8     4     30    1
9     4     31    1
10    5     17    1
11    5     6     1
12    5     7     1
13    6     32    1
14    7     8     1
15    7     20    1
16    7     9     1
17    9     10    1
18    9     33    1
19    9     34    1
20    10    16    ar
21    10    11    ar
22    11    12    ar
23    11    35    1
24    12    13    ar
25    12    36    1
26    13    14    1
27    13    15    ar
28    14    37    1
29    15    27    1
30    15    16    ar
31    16    17    1
32    17    18    1
33    17    25    1
34    18    19    1
35    18    38    1
36    18    39    1
37    19    20    1
38    19    40    1
39    19    41    1
40    20    21    1
41    21    22    1
42    21    42    1
43    21    43    1
44    22    24    1
45    22    23    1
46    22    44    1
47    23    24    1
48    23    45    1
49    23    46    1
50    24    47    1
51    24    48    1
52    25    26    1
53    25    27    1
@<TRIPOS>SUBSTRUCTURE
1   ZINC000000001773 1     RESIDUE    1   A     ZIN   1
