@<TRIPOS>MOLECULE
ZINC000000001084
24   25    0    0    0
SMALL
USER_CHARGES
NO_NAME
@<TRIPOS>ATOM
1 C1       -0.0178     1.4608     0.0101 C.3    1 <0>       0.0700
2 N2        0.0021    -0.0041     0.0020 N.pl3  1 <0>      -0.4100
3 C3        0.0085    -0.7996    -1.0853 C.2    1 <0>       0.2700
4 N4        0.0275    -2.0544    -0.7142 N.2    1 <0>      -0.5000
5 C5        0.0343    -2.1318     0.6190 C.2    1 <0>       0.3200
6 C6        0.0238    -0.8312     1.1071 C.2    1 <0>      -0.1600
7 C7        0.0280    -0.6203     2.5028 C.2    1 <0>       0.6000
8 O8        0.0186     0.5105     2.9551 O.2    1 <0>      -0.5100
9 N9        0.0421    -1.6862     3.3301 N.am   1 <0>      -0.5500
10 C10       0.0460    -1.4744     4.7797 C.3    1 <0>       0.0800
11 C11       0.0520    -2.9394     2.8441 C.2    1 <0>       0.7100
12 O12       0.0642    -3.8758     3.6199 O.2    1 <0>      -0.5300
13 N13       0.0527    -3.1841     1.5201 N.am   1 <0>      -0.5100
14 C14       0.0633    -4.5652     1.0317 C.3    1 <0>       0.0900
15 H15       1.0048     1.8381     0.0023 H      1 <0>       0.0900
16 H16      -0.5450     1.8219    -0.8730 H      1 <0>       0.1000
17 H17      -0.5280     1.8123     0.9069 H      1 <0>       0.1000
18 H18      -0.0012    -0.4540    -2.1085 H      1 <0>       0.2300
19 H19      -0.9806    -1.4321     5.1435 H      1 <0>       0.0800
20 H20       0.5701    -2.2973     5.2657 H      1 <0>       0.1000
21 H21       0.5515    -0.5362     5.0084 H      1 <0>       0.0900
22 H22       0.0696    -5.2504     1.8794 H      1 <0>       0.1000
23 H23      -0.8258    -4.7436     0.4269 H      1 <0>       0.0800
24 H24       0.9541    -4.7293     0.4252 H      1 <0>       0.0800
@<TRIPOS>BOND
1    1    2 1
2    1   15 1
3    1   16 1
4    1   17 1
5    2    6 1
6    2    3 1
7    3    4 2
8    3   18 1
9    4    5 1
10    5   13 1
11    5    6 2
12    6    7 1
13    7    8 2
14    7    9 am
15    9   10 1
16    9   11 am
17   10   19 1
18   10   20 1
19   10   21 1
20   11   12 2
21   11   13 am
22   13   14 1
23   14   22 1
24   14   23 1
25   14   24 1
