@<TRIPOS>MOLECULE
ZINC000009224016
24    25    1     0     0
SMALL
USER_CHARGES
@<TRIPOS>ATOM
1      C1     -0.0184    1.5028    0.0103 C.3      1 ZINC000009224016   -0.1100
2      C2      0.0021   -0.0041    0.0020 C.2      1 ZINC000009224016    0.2400
3      C3     -1.1905   -0.6918    0.0041 C.2      1 ZINC000009224016   -0.3000
4      C4     -2.4728    0.0540    0.0144 C.ar     1 ZINC000009224016    0.0600
5      C5     -2.8306    0.8519    1.1050 C.ar     1 ZINC000009224016   -0.1700
6      C6     -4.0319    1.5289    1.0733 C.ar     1 ZINC000009224016    0.0900
7      N7     -4.8375    1.4306    0.0329 N.ar     1 ZINC000009224016   -0.5000
8      C8     -4.5375    0.6886   -1.0161 C.ar     1 ZINC000009224016    0.0900
9      C9     -3.3536   -0.0172   -1.0689 C.ar     1 ZINC000009224016   -0.1800
10     C10    -1.1990   -2.0975   -0.0040 C.2      1 ZINC000009224016    0.0500
11     C11     0.0161   -2.7742   -0.0136 C.2      1 ZINC000009224016   -0.2800
12     C12     0.0570   -4.2056   -0.0225 C.1      1 ZINC000009224016    0.3100
13     N13     0.0895   -5.3411   -0.0295 N.1      1 ZINC000009224016   -0.5000
14     C14     1.2525   -1.9900   -0.0148 C.2      1 ZINC000009224016    0.5200
15     O15     2.3345   -2.5509   -0.0231 O.2      1 ZINC000009224016   -0.5900
16     N16     1.1865   -0.6449   -0.0127 N.pl3    1 ZINC000009224016   -0.6200
17     H17     1.0042    1.8801    0.0026 H        1 ZINC000009224016    0.0700
18     H18    -0.5455    1.8639   -0.8728 H        1 ZINC000009224016    0.0700
19     H19    -0.5286    1.8543    0.9071 H        1 ZINC000009224016    0.0700
20     H20    -2.1762    0.9367    1.9600 H        1 ZINC000009224016    0.1300
21     H21    -4.3172    2.1475    1.9114 H        1 ZINC000009224016    0.1500
22     H22    -5.2262    0.6366   -1.8464 H        1 ZINC000009224016    0.1500
23     H23    -3.1143   -0.6223   -1.9308 H        1 ZINC000009224016    0.1300
24     H24    -2.1318   -2.6419   -0.0024 H        1 ZINC000009224016    0.1100
@<TRIPOS>BOND
1     1     2     1
2     1     17    1
3     1     18    1
4     1     19    1
5     2     16    1
6     2     3     2
7     3     4     1
8     3     10    1
9     4     9     ar
10    4     5     ar
11    5     6     ar
12    5     20    1
13    6     7     ar
14    6     21    1
15    7     8     ar
16    8     9     ar
17    8     22    1
18    9     23    1
19    10    11    2
20    10    24    1
21    11    12    1
22    11    14    1
23    12    13    3
24    14    15    2
25    14    16    1
@<TRIPOS>SUBSTRUCTURE
1   ZINC000009224016 1     RESIDUE    1   A     ZIN   1
