@<TRIPOS>MOLECULE
ZINC000001530930
36    36    1     0     0
SMALL
USER_CHARGES
@<TRIPOS>ATOM
1      C1     -0.0157    1.3058    0.0092 C.2      1 ZINC000001530930   -0.1800
2      C2      0.0021   -0.0041    0.0020 C.2      1 ZINC000001530930   -0.1500
3      C3     -1.2926   -0.7753    0.0102 C.3      1 ZINC000001530930   -0.0600
4      C4     -1.3187   -1.7407   -1.1764 C.3      1 ZINC000001530930   -0.1500
5      C5     -2.6072   -2.5612   -1.0901 C.3      1 ZINC000001530930    0.0500
6      H6     -2.6221   -3.1167   -0.1524 H        1 ZINC000001530930    0.1000
7      C7     -2.6679   -3.5404   -2.2641 C.3      1 ZINC000001530930   -0.1500
8      C8     -3.7685   -1.6581   -1.1439 C.1      1 ZINC000001530930   -0.1500
9      C9     -4.6946   -0.9379   -1.1868 C.1      1 ZINC000001530930   -0.1800
10     C10    -5.8558   -0.0349   -1.2406 C.3      1 ZINC000001530930    0.0000
11     C11    -7.1443   -0.8553   -1.1543 C.3      1 ZINC000001530930   -0.1500
12     C12    -1.3708   -0.9203   -2.4514 C.2      1 ZINC000001530930    0.5300
13     O13    -2.2694   -0.1326   -2.6558 O.2      1 ZINC000001530930   -0.5400
14     N14    -0.3792   -1.0996   -3.3496 N.pl3    1 ZINC000001530930   -0.7100
15     C15     0.6196   -1.9644   -3.1389 C.2      1 ZINC000001530930    0.6600
16     O16     1.4708   -2.0623   -4.0003 O.2      1 ZINC000001530930   -0.5900
17     N17     0.7499   -2.7290   -2.0487 N.am     1 ZINC000001530930   -0.5900
18     C18     1.8971   -3.6345   -1.9488 C.3      1 ZINC000001530930    0.0700
19     C19    -0.1441   -2.6907   -1.0379 C.2      1 ZINC000001530930    0.5500
20     O20    -0.0133   -3.3897   -0.0562 O.2      1 ZINC000001530930   -0.5300
21     H21     0.9122    1.8585    0.0033 H        1 ZINC000001530930    0.0900
22     H22    -0.9582    1.8330    0.0166 H        1 ZINC000001530930    0.1000
23     H23     0.9446   -0.5313   -0.0098 H        1 ZINC000001530930    0.1000
24     H24    -1.3737   -1.3393    0.9394 H        1 ZINC000001530930    0.0800
25     H25    -2.1295   -0.0812   -0.0676 H        1 ZINC000001530930    0.0900
26     H26    -1.8080   -4.2091   -2.2243 H        1 ZINC000001530930    0.0600
27     H27    -3.5859   -4.1249   -2.2027 H        1 ZINC000001530930    0.0600
28     H28    -2.6530   -2.9849   -3.2018 H        1 ZINC000001530930    0.0700
29     H29    -5.8126    0.6627   -0.4042 H        1 ZINC000001530930    0.0800
30     H30    -5.8409    0.5207   -2.1782 H        1 ZINC000001530930    0.0800
31     H31    -8.0042   -0.1867   -1.1941 H        1 ZINC000001530930    0.0600
32     H32    -7.1875   -1.5530   -1.9907 H        1 ZINC000001530930    0.0500
33     H33    -7.1592   -1.4109   -0.2166 H        1 ZINC000001530930    0.0500
34     H34     2.5137   -3.5398   -2.8427 H        1 ZINC000001530930    0.0900
35     H35     2.4886   -3.3760   -1.0704 H        1 ZINC000001530930    0.0600
36     H36     1.5428   -4.6614   -1.8589 H        1 ZINC000001530930    0.0600
@<TRIPOS>BOND
1     1     2     2
2     1     21    1
3     1     22    1
4     2     3     1
5     2     23    1
6     3     4     1
7     3     24    1
8     3     25    1
9     4     19    1
10    4     5     1
11    4     12    1
12    5     6     1
13    5     7     1
14    5     8     1
15    7     26    1
16    7     27    1
17    7     28    1
18    8     9     3
19    9     10    1
20    10    11    1
21    10    29    1
22    10    30    1
23    11    31    1
24    11    32    1
25    11    33    1
26    12    13    2
27    12    14    1
28    14    15    1
29    15    16    2
30    15    17    am
31    17    18    1
32    17    19    am
33    18    34    1
34    18    35    1
35    18    36    1
36    19    20    2
@<TRIPOS>SUBSTRUCTURE
1   ZINC000001530930 1     RESIDUE    1   A     ZIN   1
