@<TRIPOS>MOLECULE
ZINC000003651680
30    30    1     0     0
SMALL
USER_CHARGES
@<TRIPOS>ATOM
1      C1      0.4518    1.6057   -2.5790 C.3      1 ZINC000003651680   -0.1500
2      C2      0.2756    0.0860   -2.6001 C.3      1 ZINC000003651680   -0.1300
3      C3      0.7182   -0.4975   -1.2568 C.3      1 ZINC000003651680   -0.0600
4      H4      1.7390   -0.1813   -1.0420 H        1 ZINC000003651680    0.0900
5      C5     -0.2139    0.0027   -0.1515 C.3      1 ZINC000003651680   -0.1500
6      C6      0.6602   -2.0251   -1.3203 C.3      1 ZINC000003651680   -0.1600
7      C7      1.4254   -2.4758   -2.5662 C.3      1 ZINC000003651680   -0.1000
8      C8      1.3886   -4.0023   -2.6628 C.3      1 ZINC000003651680   -0.1600
9      C9      1.3804   -2.5758   -0.1040 C.2      1 ZINC000003651680    0.5300
10     O10     2.5417   -2.3053    0.1149 O.2      1 ZINC000003651680   -0.5500
11     N11     0.6801   -3.3779    0.7257 N.pl3    1 ZINC000003651680   -0.7200
12     C12    -0.6020   -3.6856    0.4985 C.2      1 ZINC000003651680    0.6700
13     O13    -1.1562   -4.4142    1.2972 O.2      1 ZINC000003651680   -0.6000
14     N14    -1.3185   -3.2492   -0.5437 N.am     1 ZINC000003651680   -0.7000
15     C15    -0.7910   -2.4360   -1.4833 C.2      1 ZINC000003651680    0.5500
16     O16    -1.4523   -2.0487   -2.4226 O.2      1 ZINC000003651680   -0.5300
17     H17    -0.1559    2.0308   -1.7802 H        1 ZINC000003651680    0.0500
18     H18     1.5004    1.8475   -2.4057 H        1 ZINC000003651680    0.0500
19     H19     0.1364    2.0214   -3.5360 H        1 ZINC000003651680    0.0500
20     H20    -0.7731   -0.1558   -2.7734 H        1 ZINC000003651680    0.0800
21     H21     0.8833   -0.3392   -3.3989 H        1 ZINC000003651680    0.0700
22     H22     0.0334   -0.4959    0.7857 H        1 ZINC000003651680    0.0600
23     H23    -0.0923    1.0795   -0.0333 H        1 ZINC000003651680    0.0600
24     H24    -1.2470   -0.2190   -0.4194 H        1 ZINC000003651680    0.0500
25     H25     0.9618   -2.0443   -3.4533 H        1 ZINC000003651680    0.0700
26     H26     2.4604   -2.1410   -2.4978 H        1 ZINC000003651680    0.0800
27     H27     1.9337   -4.3235   -3.5504 H        1 ZINC000003651680    0.0600
28     H28     1.8522   -4.4338   -1.7757 H        1 ZINC000003651680    0.0600
29     H29     0.3535   -4.3372   -2.7312 H        1 ZINC000003651680    0.0500
30     H30    -2.2445   -3.5256   -0.6269 H        1 ZINC000003651680    0.3900
@<TRIPOS>BOND
1     1     2     1
2     1     17    1
3     1     18    1
4     1     19    1
5     2     3     1
6     2     20    1
7     2     21    1
8     3     4     1
9     3     5     1
10    3     6     1
11    5     22    1
12    5     23    1
13    5     24    1
14    6     15    1
15    6     7     1
16    6     9     1
17    7     8     1
18    7     25    1
19    7     26    1
20    8     27    1
21    8     28    1
22    8     29    1
23    9     10    2
24    9     11    1
25    11    12    1
26    12    13    2
27    12    14    am
28    14    15    am
29    14    30    1
30    15    16    2
@<TRIPOS>SUBSTRUCTURE
1   ZINC000003651680 1     RESIDUE    1   A     ZIN   1
