@<TRIPOS>MOLECULE
ZINC000000537822
49   51    0    0    0
SMALL
USER_CHARGES
NO_NAME
@<TRIPOS>ATOM
1 O1        0.0021    -0.0041     0.0020 O.2    1 <0>      -0.4500
2 C2       -0.0144     1.2085     0.0087 C.2    1 <0>       0.4000
3 C3        1.2803     1.9797     0.0005 C.3    1 <0>      -0.1700
4 C4        2.4566     1.0014    -0.0160 C.3    1 <0>      -0.1200
5 C5        3.7710     1.7844    -0.0244 C.3    1 <0>       0.0600
6 N6        4.9004     0.8451    -0.0402 N.3    1 <0>      -0.5400
7 C7        4.7031    -0.2317     0.9386 C.3    1 <0>       0.0500
8 C8        5.8218    -1.2659     0.7937 C.3    1 <0>      -0.1000
9 C9        7.1735    -0.5840     1.0227 C.3    1 <0>       0.1700
10 O10       7.2287    -0.0682     2.3542 O.3    1 <0>      -0.5500
11 C11       8.2825    -1.5847     0.8239 C.ar   1 <0>      -0.1000
12 C12       8.1182    -2.6306    -0.0651 C.ar   1 <0>      -0.1000
13 C13       9.1350    -3.5488    -0.2479 C.ar   1 <0>      -0.1100
14 C14      10.3174    -3.4210     0.4590 C.ar   1 <0>      -0.0400
15 Cl15     11.5952    -4.5735     0.2296 Cl     1 <0>      -0.0700
16 C16      10.4813    -2.3741     1.3486 C.ar   1 <0>      -0.1100
17 C17       9.4659    -1.4533     1.5263 C.ar   1 <0>      -0.1000
18 C18       7.3330     0.5642     0.0222 C.3    1 <0>      -0.1400
19 C19       6.1705     1.5453     0.1895 C.3    1 <0>       0.0600
20 C20      -1.2974     1.9262     0.0187 C.ar   1 <0>      -0.1800
21 C21      -1.3199     3.3255     0.0206 C.ar   1 <0>      -0.0400
22 C22      -2.5255     3.9917     0.0300 C.ar   1 <0>      -0.1700
23 C23      -3.7154     3.2788     0.0380 C.ar   1 <0>       0.1300
24 F24      -4.8945     3.9384     0.0477 F      1 <0>      -0.1300
25 C25      -3.7002     1.8917     0.0357 C.ar   1 <0>      -0.1700
26 C26      -2.5015     1.2132     0.0205 C.ar   1 <0>      -0.0300
27 H27       1.3211     2.6119    -0.8866 H      1 <0>       0.1000
28 H28       1.3381     2.6023     0.8933 H      1 <0>       0.1000
29 H29       2.4158     0.3693     0.8710 H      1 <0>       0.0700
30 H30       2.3988     0.3788    -0.9088 H      1 <0>       0.0800
31 H31       3.8118     2.4165    -0.9114 H      1 <0>       0.0800
32 H32       3.8288     2.4070     0.8685 H      1 <0>       0.0400
33 H33       4.7219     0.1850     1.9457 H      1 <0>       0.0400
34 H34       3.7402    -0.7110     0.7621 H      1 <0>       0.0900
35 H35       5.6837    -2.0569     1.5308 H      1 <0>       0.0800
36 H36       5.7948    -1.6930    -0.2087 H      1 <0>       0.0900
37 H37       8.0592     0.3781     2.5690 H      1 <0>       0.3700
38 H38       7.1950    -2.7304    -0.6166 H      1 <0>       0.1400
39 H39       9.0064    -4.3660    -0.9421 H      1 <0>       0.1400
40 H40      11.4039    -2.2740     1.9009 H      1 <0>       0.1300
41 H41       9.5938    -0.6358     2.2204 H      1 <0>       0.1300
42 H42       8.2747     1.0806     0.2081 H      1 <0>       0.0700
43 H43       7.3299     0.1658    -0.9924 H      1 <0>       0.0800
44 H44       6.2735     2.3566    -0.5311 H      1 <0>       0.0800
45 H45       6.1825     1.9537     1.2001 H      1 <0>       0.0400
46 H46      -0.3942     3.8817     0.0151 H      1 <0>       0.1400
47 H47      -2.5443     5.0716     0.0315 H      1 <0>       0.1400
48 H48      -4.6301     1.3426     0.0420 H      1 <0>       0.1400
49 H49      -2.4909     0.1332     0.0184 H      1 <0>       0.1400
@<TRIPOS>BOND
1    1    2 2
2    2    3 1
3    2   20 1
4    3    4 1
5    3   27 1
6    3   28 1
7    4    5 1
8    4   29 1
9    4   30 1
10    5    6 1
11    5   31 1
12    5   32 1
13    6   19 1
14    6    7 1
15    7    8 1
16    7   33 1
17    7   34 1
18    8    9 1
19    8   35 1
20    8   36 1
21    9   10 1
22    9   11 1
23    9   18 1
24   10   37 1
25   11   17 ar
26   11   12 ar
27   12   13 ar
28   12   38 1
29   13   14 ar
30   13   39 1
31   14   15 1
32   14   16 ar
33   16   17 ar
34   16   40 1
35   17   41 1
36   18   19 1
37   18   42 1
38   18   43 1
39   19   44 1
40   19   45 1
41   20   26 ar
42   20   21 ar
43   21   22 ar
44   21   46 1
45   22   23 ar
46   22   47 1
47   23   24 1
48   23   25 ar
49   25   26 ar
50   25   48 1
51   26   49 1
