@<TRIPOS>MOLECULE
ZINC000035801098
57    60    1     0     0
SMALL
USER_CHARGES
@<TRIPOS>ATOM
1      C1     -0.0187    1.5258    0.0104 C.3      1 ZINC000035801098   -0.1500
2      C2      0.0021   -0.0041    0.0020 C.3      1 ZINC000035801098   -0.0900
3      C3      0.7074   -0.4901   -1.2379 C.ar     1 ZINC000035801098   -0.0600
4      C4     -0.0214   -0.8170   -2.3644 C.ar     1 ZINC000035801098   -0.0900
5      C5      0.6230   -1.2640   -3.5060 C.ar     1 ZINC000035801098   -0.1000
6      C6      2.0001   -1.3824   -3.5170 C.ar     1 ZINC000035801098   -0.1100
7      C7      2.7293   -1.0533   -2.3865 C.ar     1 ZINC000035801098   -0.0900
8      C8      2.0853   -0.6036   -1.2506 C.ar     1 ZINC000035801098   -0.0700
9      C9      2.8829   -0.2462   -0.0229 C.3      1 ZINC000035801098   -0.0900
10     C10     2.9301   -1.4483    0.9224 C.3      1 ZINC000035801098   -0.1500
11     C11     2.4595   -1.8861   -4.8685 C.3      1 ZINC000035801098   -0.0900
12     C12     1.2653   -1.6462   -5.8163 C.3      1 ZINC000035801098    0.0200
13     N13     1.1649   -2.7214   -6.8122 N.4      1 ZINC000035801098   -0.5000
14     H14     2.0420   -2.8079   -7.3034 H        1 ZINC000035801098    0.4300
15     H15     0.9524   -3.5915   -6.3476 H        1 ZINC000035801098    0.4200
16     C16     0.0967   -2.4040   -7.7695 C.3      1 ZINC000035801098   -0.0500
17     C17    -0.0078   -3.5239   -8.8068 C.3      1 ZINC000035801098    0.1600
18     H18    -0.2373   -4.4638   -8.3048 H        1 ZINC000035801098    0.1100
19     O19     1.2344   -3.6463   -9.5024 O.3      1 ZINC000035801098   -0.5600
20     C20    -1.1036   -3.1983   -9.7888 C.ar     1 ZINC000035801098   -0.2600
21     C21    -0.8033   -2.5834  -10.9707 C.ar     1 ZINC000035801098   -0.0400
22     C22    -1.8034   -2.2782  -11.8836 C.ar     1 ZINC000035801098   -0.2700
23     C23    -3.1223   -2.5908  -11.6138 C.ar     1 ZINC000035801098    0.2700
24     O24    -4.0946   -2.2877  -12.5146 O.3      1 ZINC000035801098   -0.6900
25     C25    -3.4508   -3.2199  -10.4117 C.ar     1 ZINC000035801098    0.0600
26     C26    -2.4311   -3.5305   -9.4945 C.ar     1 ZINC000035801098   -0.0700
27     C27    -2.7853   -4.1902   -8.2363 C.2      1 ZINC000035801098   -0.0500
28     C28    -4.0889   -4.4789   -8.0005 C.2      1 ZINC000035801098   -0.2100
29     C29    -5.0745   -4.1465   -8.9544 C.2      1 ZINC000035801098    0.5100
30     O30    -6.2407   -4.4153   -8.7226 O.2      1 ZINC000035801098   -0.5700
31     N31    -4.7585   -3.5444  -10.1144 N.am     1 ZINC000035801098   -0.5900
32     C32     0.0628   -1.6801   -4.8492 C.3      1 ZINC000035801098   -0.0900
33     H33     1.0039    1.9031    0.0027 H        1 ZINC000035801098    0.0600
34     H34    -0.5459    1.8868   -0.8726 H        1 ZINC000035801098    0.0600
35     H35    -0.5289    1.8773    0.9072 H        1 ZINC000035801098    0.0600
36     H36     0.5293   -0.3651    0.8851 H        1 ZINC000035801098    0.0800
37     H37    -1.0205   -0.3814    0.0098 H        1 ZINC000035801098    0.0800
38     H38    -1.0973   -0.7242   -2.3551 H        1 ZINC000035801098    0.1300
39     H39     3.8052   -1.1460   -2.3941 H        1 ZINC000035801098    0.1300
40     H40     3.8970    0.0263   -0.3151 H        1 ZINC000035801098    0.0700
41     H41     2.4120    0.5962    0.4838 H        1 ZINC000035801098    0.0800
42     H42     1.9159   -1.7208    1.2146 H        1 ZINC000035801098    0.0600
43     H43     3.4009   -2.2907    0.4158 H        1 ZINC000035801098    0.0600
44     H44     3.5069   -1.1898    1.8104 H        1 ZINC000035801098    0.0600
45     H45     3.3295   -1.3229   -5.2062 H        1 ZINC000035801098    0.1000
46     H46     2.6933   -2.9495   -4.8163 H        1 ZINC000035801098    0.1000
47     H47     1.3468   -0.6749   -6.3041 H        1 ZINC000035801098    0.1500
48     H48    -0.8508   -2.3107   -7.2389 H        1 ZINC000035801098    0.1400
49     H49     0.3262   -1.4641   -8.2715 H        1 ZINC000035801098    0.1400
50     H50     1.5021   -2.8453   -9.9734 H        1 ZINC000035801098    0.3800
51     H51     0.2224   -2.3318  -11.1970 H        1 ZINC000035801098    0.1000
52     H52    -1.5484   -1.7915  -12.8134 H        1 ZINC000035801098    0.1100
53     H53    -2.0246   -4.4418   -7.5121 H        1 ZINC000035801098    0.1200
54     H54    -4.3740   -4.9654   -7.0793 H        1 ZINC000035801098    0.1400
55     H55    -5.4604   -3.3296  -10.7484 H        1 ZINC000035801098    0.4200
56     H56    -0.3481   -2.6881   -4.7918 H        1 ZINC000035801098    0.1000
57     H57    -0.7036   -0.9763   -5.1739 H        1 ZINC000035801098    0.1100
@<TRIPOS>BOND
1     1     2     1
2     1     33    1
3     1     34    1
4     1     35    1
5     2     3     1
6     2     36    1
7     2     37    1
8     3     8     ar
9     3     4     ar
10    4     5     ar
11    4     38    1
12    5     32    1
13    5     6     ar
14    6     7     ar
15    6     11    1
16    7     8     ar
17    7     39    1
18    8     9     1
19    9     10    1
20    9     40    1
21    9     41    1
22    10    42    1
23    10    43    1
24    10    44    1
25    11    12    1
26    11    45    1
27    11    46    1
28    12    13    1
29    12    32    1
30    12    47    1
31    13    14    1
32    13    15    1
33    13    16    1
34    16    17    1
35    16    48    1
36    16    49    1
37    17    18    1
38    17    19    1
39    17    20    1
40    19    50    1
41    20    26    ar
42    20    21    ar
43    21    22    ar
44    21    51    1
45    22    23    ar
46    22    52    1
47    23    24    1
48    23    25    ar
49    25    31    1
50    25    26    ar
51    26    27    1
52    27    28    2
53    27    53    1
54    28    29    1
55    28    54    1
56    29    30    2
57    29    31    am
58    31    55    1
59    32    56    1
60    32    57    1
@<TRIPOS>SUBSTRUCTURE
1   ZINC000035801098 1     RESIDUE    1   A     ZIN   1
