@<TRIPOS>MOLECULE
ZINC000001996117
63    67    1     0     0
SMALL
USER_CHARGES
@<TRIPOS>ATOM
1      N1      0.4969    0.9003    0.4920 N.am     1 ZINC000001996117   -0.8600
2      C2      0.1591   -0.3471    0.1092 C.2      1 ZINC000001996117    0.5200
3      O3      1.0182   -1.1255   -0.2471 O.2      1 ZINC000001996117   -0.5000
4      C4     -1.2859   -0.7744    0.1239 C.3      1 ZINC000001996117    0.0200
5      C5     -1.3659   -2.2776    0.0526 C.ar     1 ZINC000001996117   -0.0900
6      C6     -2.1058   -2.9756    0.9887 C.ar     1 ZINC000001996117   -0.1000
7      C7     -2.1792   -4.3544    0.9233 C.ar     1 ZINC000001996117   -0.1200
8      C8     -1.5131   -5.0353   -0.0785 C.ar     1 ZINC000001996117   -0.1000
9      C9     -0.7740   -4.3373   -1.0152 C.ar     1 ZINC000001996117   -0.1200
10     C10    -0.7041   -2.9581   -0.9523 C.ar     1 ZINC000001996117   -0.0900
11     C11    -1.9382   -0.2965    1.3955 C.ar     1 ZINC000001996117   -0.1000
12     C12    -3.1241    0.4117    1.3401 C.ar     1 ZINC000001996117   -0.1300
13     C13    -3.7224    0.8502    2.5066 C.ar     1 ZINC000001996117   -0.1100
14     C14    -3.1351    0.5801    3.7285 C.ar     1 ZINC000001996117   -0.1000
15     C15    -1.9497   -0.1289    3.7839 C.ar     1 ZINC000001996117   -0.1100
16     C16    -1.3536   -0.5710    2.6177 C.ar     1 ZINC000001996117   -0.1000
17     C17    -2.0095   -0.1675   -1.0798 C.3      1 ZINC000001996117   -0.0900
18     H18    -3.0472   -0.5005   -1.1040 H        1 ZINC000001996117    0.1300
19     C19    -1.2900   -0.5580   -2.3912 C.3      1 ZINC000001996117   -0.1600
20     C20    -1.3775    0.7393   -3.2339 C.3      1 ZINC000001996117   -0.0100
21     N21    -1.1960    1.8133   -2.2241 N.4      1 ZINC000001996117   -0.4000
22     H22    -0.2172    1.9230   -2.0050 H        1 ZINC000001996117    0.4200
23     C23    -1.7483    3.0788   -2.7257 C.3      1 ZINC000001996117   -0.0100
24     C24    -0.9223    3.5574   -3.9214 C.3      1 ZINC000001996117   -0.0900
25     C25    -1.4889    4.8555   -4.4360 C.ar     1 ZINC000001996117   -0.1400
26     C26    -2.4720    4.8464   -5.4078 C.ar     1 ZINC000001996117   -0.0700
27     C27    -2.9917    6.0322   -5.8850 C.ar     1 ZINC000001996117   -0.1400
28     C28    -2.5297    7.2494   -5.3911 C.ar     1 ZINC000001996117    0.1300
29     O29    -2.8845    8.5197   -5.7283 O.3      1 ZINC000001996117   -0.3000
30     C30    -2.4760    9.4188   -4.6834 C.3      1 ZINC000001996117    0.0500
31     C31    -1.2580    8.6935   -4.0639 C.3      1 ZINC000001996117   -0.1100
32     C32    -1.5465    7.2454   -4.4097 C.ar     1 ZINC000001996117   -0.1700
33     C33    -1.0308    6.0608   -3.9333 C.ar     1 ZINC000001996117   -0.0600
34     C34    -1.9427    1.3700   -1.0241 C.3      1 ZINC000001996117   -0.0200
35     H35     1.4313    1.1553    0.5440 H        1 ZINC000001996117    0.4100
36     H36    -0.1946    1.5441    0.7116 H        1 ZINC000001996117    0.4000
37     H37    -2.6261   -2.4437    1.7714 H        1 ZINC000001996117    0.1300
38     H38    -2.7566   -4.8998    1.6551 H        1 ZINC000001996117    0.1300
39     H39    -1.5699   -6.1126   -0.1292 H        1 ZINC000001996117    0.1300
40     H40    -0.2534   -4.8692   -1.7978 H        1 ZINC000001996117    0.1300
41     H41    -0.1267   -2.4127   -1.6842 H        1 ZINC000001996117    0.1300
42     H42    -3.5830    0.6227    0.3855 H        1 ZINC000001996117    0.1200
43     H43    -4.6486    1.4040    2.4633 H        1 ZINC000001996117    0.1300
44     H44    -3.6022    0.9232    4.6398 H        1 ZINC000001996117    0.1300
45     H45    -1.4907   -0.3396    4.7386 H        1 ZINC000001996117    0.1300
46     H46    -0.4275   -1.1249    2.6610 H        1 ZINC000001996117    0.1200
47     H47    -0.2506   -0.8223   -2.1969 H        1 ZINC000001996117    0.1100
48     H48    -1.8109   -1.3765   -2.8880 H        1 ZINC000001996117    0.1300
49     H49    -0.5800    0.7704   -3.9762 H        1 ZINC000001996117    0.1400
50     H50    -2.3534    0.8221   -3.7124 H        1 ZINC000001996117    0.1400
51     H51    -2.7821    2.9264   -3.0360 H        1 ZINC000001996117    0.1300
52     H52    -1.7128    3.8291   -1.9359 H        1 ZINC000001996117    0.1300
53     H53     0.1115    3.7097   -3.6112 H        1 ZINC000001996117    0.0900
54     H54    -0.9578    2.8070   -4.7112 H        1 ZINC000001996117    0.1000
55     H55    -2.8350    3.9062   -5.7958 H        1 ZINC000001996117    0.1300
56     H56    -3.7593    6.0162   -6.6445 H        1 ZINC000001996117    0.1400
57     H57    -2.1817   10.3834   -5.0971 H        1 ZINC000001996117    0.1100
58     H58    -3.2695    9.5398   -3.9460 H        1 ZINC000001996117    0.0800
59     H59    -0.3293    9.0269   -4.5269 H        1 ZINC000001996117    0.1000
60     H60    -1.2269    8.8374   -2.9839 H        1 ZINC000001996117    0.1000
61     H61    -0.2670    6.0724   -3.1699 H        1 ZINC000001996117    0.1300
62     H62    -2.9492    1.7883   -1.0375 H        1 ZINC000001996117    0.1500
63     H63    -1.4182    1.6863   -0.1225 H        1 ZINC000001996117    0.1300
@<TRIPOS>BOND
1     1     2     am
2     1     35    1
3     1     36    1
4     2     3     2
5     2     4     1
6     4     5     1
7     4     11    1
8     4     17    1
9     5     10    ar
10    5     6     ar
11    6     7     ar
12    6     37    1
13    7     8     ar
14    7     38    1
15    8     9     ar
16    8     39    1
17    9     10    ar
18    9     40    1
19    10    41    1
20    11    16    ar
21    11    12    ar
22    12    13    ar
23    12    42    1
24    13    14    ar
25    13    43    1
26    14    15    ar
27    14    44    1
28    15    16    ar
29    15    45    1
30    16    46    1
31    17    18    1
32    17    34    1
33    17    19    1
34    19    20    1
35    19    47    1
36    19    48    1
37    20    21    1
38    20    49    1
39    20    50    1
40    21    22    1
41    21    23    1
42    21    34    1
43    23    24    1
44    23    51    1
45    23    52    1
46    24    25    1
47    24    53    1
48    24    54    1
49    25    33    ar
50    25    26    ar
51    26    27    ar
52    26    55    1
53    27    28    ar
54    27    56    1
55    28    32    ar
56    28    29    1
57    29    30    1
58    30    31    1
59    30    57    1
60    30    58    1
61    31    32    1
62    31    59    1
63    31    60    1
64    32    33    ar
65    33    61    1
66    34    62    1
67    34    63    1
@<TRIPOS>SUBSTRUCTURE
1   ZINC000001996117 1     RESIDUE    1   A     ZIN   1
