@<TRIPOS>MOLECULE
ZINC000070466416
62    66    1     0     0
SMALL
USER_CHARGES
@<TRIPOS>ATOM
1      C1     -7.5937  -11.0058   -5.5811 C.3      1 ZINC000070466416    0.0100
2      O2     -6.7543  -10.0112   -4.9910 O.3      1 ZINC000070466416   -0.2800
3      C3     -5.5665   -9.7641   -5.6032 C.ar     1 ZINC000070466416    0.2200
4      C4     -4.6985   -8.8026   -5.0665 C.ar     1 ZINC000070466416    0.1300
5      O5     -5.0541   -8.1285   -3.9404 O.3      1 ZINC000070466416   -0.2900
6      C6     -4.1268   -7.1617   -3.4429 C.3      1 ZINC000070466416    0.0100
7      C7     -3.4998   -8.5370   -5.6629 C.ar     1 ZINC000070466416   -0.1400
8      C8     -3.1331   -9.2326   -6.8247 C.ar     1 ZINC000070466416   -0.0900
9      C9     -4.0078  -10.2039   -7.3695 C.ar     1 ZINC000070466416    0.1800
10     C10    -5.2319  -10.4592   -6.7294 C.ar     1 ZINC000070466416   -0.2400
11     N11    -3.6600  -10.8691   -8.4776 N.ar     1 ZINC000070466416   -0.4800
12     H12    -4.2674  -11.5319   -8.8417 H        1 ZINC000070466416    0.4500
13     C13    -2.5175  -10.6466   -9.0839 C.ar     1 ZINC000070466416    0.2300
14     C14    -1.6072   -9.7101   -8.6105 C.ar     1 ZINC000070466416   -0.2600
15     C15    -1.9002   -8.9846   -7.4691 C.ar     1 ZINC000070466416    0.2800
16     O16    -1.0309   -8.0640   -6.9840 O.3      1 ZINC000070466416   -0.2100
17     C17     0.1680   -7.9262   -7.6099 C.ar     1 ZINC000070466416    0.0200
18     C18     0.2540   -7.2060   -8.7928 C.ar     1 ZINC000070466416   -0.0900
19     C19     1.4713   -7.0661   -9.4292 C.ar     1 ZINC000070466416   -0.1300
20     C20     2.6096   -7.6459   -8.8851 C.ar     1 ZINC000070466416    0.1700
21     N21     3.8450   -7.5039   -9.5301 N.am     1 ZINC000070466416   -0.6800
22     C22     4.7520   -8.4993   -9.4757 C.2      1 ZINC000070466416    0.5600
23     O23     4.5190   -9.4973   -8.8269 O.2      1 ZINC000070466416   -0.5000
24     C24     6.0556   -8.3724  -10.2210 C.3      1 ZINC000070466416   -0.2100
25     C25     6.0281   -7.4737  -11.4303 C.2      1 ZINC000070466416    0.5500
26     O26     6.4039   -7.8916  -12.5052 O.2      1 ZINC000070466416   -0.4900
27     N27     5.5860   -6.2055  -11.3176 N.am     1 ZINC000070466416   -0.6800
28     C28     5.4829   -5.3962  -12.4556 C.ar     1 ZINC000070466416    0.1200
29     C29     4.9425   -5.9096  -13.6271 C.ar     1 ZINC000070466416   -0.0800
30     C30     4.8417   -5.1097  -14.7485 C.ar     1 ZINC000070466416   -0.1400
31     C31     5.2796   -3.7967  -14.7053 C.ar     1 ZINC000070466416    0.1000
32     F32     5.1802   -3.0159  -15.8033 F        1 ZINC000070466416   -0.1300
33     C33     5.8189   -3.2828  -13.5379 C.ar     1 ZINC000070466416   -0.1300
34     C34     5.9157   -4.0776  -12.4125 C.ar     1 ZINC000070466416   -0.1000
35     C35     7.3458   -8.4129   -9.3995 C.3      1 ZINC000070466416   -0.1200
36     C36     6.9600   -9.6052  -10.2774 C.3      1 ZINC000070466416   -0.1000
37     C37     2.5230   -8.3662   -7.7011 C.ar     1 ZINC000070466416   -0.1100
38     C38     1.3062   -8.5011   -7.0628 C.ar     1 ZINC000070466416   -0.0800
39     H39    -7.8451  -10.7112   -6.6000 H        1 ZINC000070466416    0.0700
40     H40    -7.0687  -11.9608   -5.5980 H        1 ZINC000070466416    0.0700
41     H41    -8.5077  -11.1039   -4.9953 H        1 ZINC000070466416    0.1200
42     H42    -3.1830   -7.6524   -3.2048 H        1 ZINC000070466416    0.0700
43     H43    -3.9576   -6.3970   -4.2010 H        1 ZINC000070466416    0.0700
44     H44    -4.5324   -6.6984   -2.5436 H        1 ZINC000070466416    0.1200
45     H45    -2.8372   -7.7948   -5.2428 H        1 ZINC000070466416    0.1700
46     H46    -5.9102  -11.1969   -7.1322 H        1 ZINC000070466416    0.1700
47     H47    -2.2782  -11.2073   -9.9753 H        1 ZINC000070466416    0.2100
48     H48    -0.6747   -9.5491   -9.1309 H        1 ZINC000070466416    0.1800
49     H49    -0.6315   -6.7550   -9.2159 H        1 ZINC000070466416    0.1400
50     H50     1.5380   -6.5060  -10.3502 H        1 ZINC000070466416    0.1400
51     H51     4.0476   -6.6891  -10.0159 H        1 ZINC000070466416    0.4100
52     H52     5.3392   -5.8534  -10.4481 H        1 ZINC000070466416    0.4100
53     H53     4.6015   -6.9337  -13.6615 H        1 ZINC000070466416    0.1400
54     H54     4.4214   -5.5086  -15.6599 H        1 ZINC000070466416    0.1400
55     H55     6.1602   -2.2587  -13.5063 H        1 ZINC000070466416    0.1400
56     H56     6.3363   -3.6764  -11.5023 H        1 ZINC000070466416    0.1400
57     H57     8.1750   -7.7894   -9.7337 H        1 ZINC000070466416    0.1200
58     H58     7.2517   -8.5314   -8.3201 H        1 ZINC000070466416    0.1200
59     H59     6.6121  -10.5081   -9.7754 H        1 ZINC000070466416    0.1200
60     H60     7.5354   -9.7660  -11.1890 H        1 ZINC000070466416    0.1200
61     H61     3.4080   -8.8177   -7.2776 H        1 ZINC000070466416    0.1600
62     H62     1.2388   -9.0610   -6.1417 H        1 ZINC000070466416    0.1400
@<TRIPOS>BOND
1     1     2     1
2     1     39    1
3     1     40    1
4     1     41    1
5     2     3     1
6     3     10    ar
7     3     4     ar
8     4     5     1
9     4     7     ar
10    5     6     1
11    6     42    1
12    6     43    1
13    6     44    1
14    7     8     ar
15    7     45    1
16    8     15    ar
17    8     9     ar
18    9     10    ar
19    9     11    ar
20    10    46    1
21    11    12    1
22    11    13    ar
23    13    14    ar
24    13    47    1
25    14    15    ar
26    14    48    1
27    15    16    1
28    16    17    1
29    17    38    ar
30    17    18    ar
31    18    19    ar
32    18    49    1
33    19    20    ar
34    19    50    1
35    20    21    1
36    20    37    ar
37    21    22    am
38    21    51    1
39    22    23    2
40    22    24    1
41    24    36    1
42    24    25    1
43    24    35    1
44    25    26    2
45    25    27    am
46    27    28    1
47    27    52    1
48    28    34    ar
49    28    29    ar
50    29    30    ar
51    29    53    1
52    30    31    ar
53    30    54    1
54    31    32    1
55    31    33    ar
56    33    34    ar
57    33    55    1
58    34    56    1
59    35    36    1
60    35    57    1
61    35    58    1
62    36    59    1
63    36    60    1
64    37    38    ar
65    37    61    1
66    38    62    1
@<TRIPOS>SUBSTRUCTURE
1   ZINC000070466416 1     RESIDUE    1   A     ZIN   1
