@<TRIPOS>MOLECULE
ZINC000001698306
23   23    0    0    0
SMALL
USER_CHARGES
NO_NAME
@<TRIPOS>ATOM
1 O1        0.0021    -0.0041     0.0020 O.2    1 <0>      -0.4900
2 C2       -0.0144     1.2109     0.0087 C.2    1 <0>       0.5100
3 O3        1.1433     1.9005     0.0013 O.3    1 <0>      -0.3500
4 C4        2.3716     1.1263    -0.0145 C.3    1 <0>       0.0700
5 C5        3.5721     2.0747    -0.0209 C.3    1 <0>       0.0800
6 O6        3.6046     2.8102     1.2039 O.3    1 <0>      -0.5700
7 C7       -1.3008     1.9305     0.0187 C.ar   1 <0>      -0.1600
8 C8       -1.3246     3.3276     0.0206 C.ar   1 <0>      -0.0500
9 C9       -2.5307     3.9941     0.0301 C.ar   1 <0>      -0.1400
10 C10      -3.7209     3.2855     0.0381 C.ar   1 <0>      -0.0700
11 C11      -3.7122     1.9046     0.0363 C.ar   1 <0>      -0.1600
12 C12      -2.5081     1.2170     0.0206 C.ar   1 <0>       0.1700
13 O13      -2.4979    -0.1393     0.0188 O.3    1 <0>      -0.4800
14 H14       2.4135     0.4931     0.8717 H      1 <0>       0.0800
15 H15       2.3965     0.5027    -0.9082 H      1 <0>       0.0900
16 H16       4.4909     1.4971    -0.1224 H      1 <0>       0.0700
17 H17       3.4839     2.7670    -0.8582 H      1 <0>       0.0600
18 H18       4.3417     3.4327     1.2694 H      1 <0>       0.3800
19 H19      -0.3991     3.8842     0.0151 H      1 <0>       0.1400
20 H20      -2.5480     5.0740     0.0315 H      1 <0>       0.1400
21 H21      -4.6615     3.8163     0.0462 H      1 <0>       0.1400
22 H22      -4.6444     1.3594     0.0430 H      1 <0>       0.1400
23 H23      -2.5059    -0.5315    -0.8651 H      1 <0>       0.4000
@<TRIPOS>BOND
1    1    2 2
2    2    3 1
3    2    7 1
4    3    4 1
5    4    5 1
6    4   14 1
7    4   15 1
8    5    6 1
9    5   16 1
10    5   17 1
11    6   18 1
12    7   12 ar
13    7    8 ar
14    8    9 ar
15    8   19 1
16    9   10 ar
17    9   20 1
18   10   11 ar
19   10   21 1
20   11   12 ar
21   11   22 1
22   12   13 1
23   13   23 1
