@<TRIPOS>MOLECULE
ZINC000003781943
58    60    1     0     0
SMALL
USER_CHARGES
@<TRIPOS>ATOM
1      C1     -0.0187    1.5258    0.0104 C.3      1 ZINC000003781943   -0.1500
2      C2      0.0021   -0.0041    0.0020 C.3      1 ZINC000003781943    0.0600
3      O3      0.6817   -0.4723   -1.1926 O.3      1 ZINC000003781943   -0.3500
4      C4      0.7862   -1.8009   -1.3531 C.2      1 ZINC000003781943    0.4400
5      O5      0.3251   -2.5478   -0.5228 O.2      1 ZINC000003781943   -0.5100
6      C6      1.4787   -2.3609   -2.5688 C.3      1 ZINC000003781943    0.1000
7      H7      2.5107   -2.0108   -2.5926 H        1 ZINC000003781943    0.1100
8      C8      0.7519   -1.8922   -3.8309 C.3      1 ZINC000003781943   -0.0900
9      C9      1.5252   -2.3563   -5.0668 C.3      1 ZINC000003781943   -0.0800
10     C10     0.8093   -1.8947   -6.3100 C.ar     1 ZINC000003781943   -0.0700
11     C11    -0.1551   -2.6972   -6.8905 C.ar     1 ZINC000003781943   -0.1100
12     C12    -0.8117   -2.2737   -8.0308 C.ar     1 ZINC000003781943   -0.1200
13     C13    -0.5045   -1.0476   -8.5903 C.ar     1 ZINC000003781943   -0.1300
14     C14     0.4592   -0.2447   -8.0093 C.ar     1 ZINC000003781943   -0.1200
15     C15     1.1129   -0.6663   -6.8665 C.ar     1 ZINC000003781943   -0.1200
16     N16     1.4608   -3.8286   -2.5099 N.3      1 ZINC000003781943   -0.6300
17     C17     2.5851   -4.3372   -1.7130 C.3      1 ZINC000003781943    0.0700
18     H18     2.7850   -3.6480   -0.8925 H        1 ZINC000003781943    0.0600
19     C19     2.2196   -5.7076   -1.1426 C.3      1 ZINC000003781943   -0.1000
20     C20     3.4893   -6.4196   -0.6692 C.3      1 ZINC000003781943   -0.1000
21     C21     4.3797   -5.4594    0.0725 C.ar     1 ZINC000003781943   -0.0900
22     C22     4.4489   -5.4959    1.4512 C.ar     1 ZINC000003781943   -0.1000
23     C23     5.2790   -4.6178    2.1247 C.ar     1 ZINC000003781943   -0.1400
24     C24     6.0417   -3.7030    1.4224 C.ar     1 ZINC000003781943   -0.1100
25     C25     5.9736   -3.6594    0.0425 C.ar     1 ZINC000003781943   -0.1400
26     C26     5.1367   -4.5350   -0.6329 C.ar     1 ZINC000003781943    0.1700
27     N27     5.0312   -4.4819   -2.0296 N.am     1 ZINC000003781943   -0.5400
28     C28     6.2318   -4.4763   -2.8691 C.3      1 ZINC000003781943    0.0500
29     C29     6.6139   -5.8940   -3.2087 C.2      1 ZINC000003781943    0.4900
30     O30     5.9453   -6.8229   -2.7884 O.co2    1 ZINC000003781943   -0.6800
31     O31     7.5917   -6.1121   -3.9036 O.co2    1 ZINC000003781943   -0.7000
32     C32     3.8055   -4.4372   -2.5848 C.2      1 ZINC000003781943    0.5200
33     O33     3.6858   -4.4769   -3.7911 O.2      1 ZINC000003781943   -0.5000
34     H34     1.0039    1.9031    0.0027 H        1 ZINC000003781943    0.0700
35     H35    -0.5459    1.8868   -0.8726 H        1 ZINC000003781943    0.0700
36     H36    -0.5289    1.8773    0.9072 H        1 ZINC000003781943    0.0800
37     H37     0.5293   -0.3651    0.8851 H        1 ZINC000003781943    0.0700
38     H38    -1.0205   -0.3814    0.0098 H        1 ZINC000003781943    0.0700
39     H39    -0.2523   -2.3157   -3.8503 H        1 ZINC000003781943    0.0700
40     H40     0.6873   -0.8041   -3.8301 H        1 ZINC000003781943    0.0800
41     H41     2.5293   -1.9328   -5.0474 H        1 ZINC000003781943    0.0700
42     H42     1.5897   -3.4444   -5.0676 H        1 ZINC000003781943    0.1000
43     H43    -0.3951   -3.6551   -6.4533 H        1 ZINC000003781943    0.1200
44     H44    -1.5646   -2.9010   -8.4848 H        1 ZINC000003781943    0.1200
45     H45    -1.0170   -0.7171   -9.4816 H        1 ZINC000003781943    0.1200
46     H46     0.6995    0.7131   -8.4466 H        1 ZINC000003781943    0.1200
47     H47     1.8657   -0.0390   -6.4125 H        1 ZINC000003781943    0.1200
48     H48     0.5806   -4.1653   -2.1495 H        1 ZINC000003781943    0.3600
49     H49     1.5390   -5.5808   -0.3007 H        1 ZINC000003781943    0.0700
50     H50     1.7347   -6.3049   -1.9147 H        1 ZINC000003781943    0.0800
51     H51     3.2167   -7.2427   -0.0087 H        1 ZINC000003781943    0.0700
52     H52     4.0247   -6.8148   -1.5325 H        1 ZINC000003781943    0.1200
53     H53     3.8551   -6.2092    2.0034 H        1 ZINC000003781943    0.1200
54     H54     5.3313   -4.6466    3.2030 H        1 ZINC000003781943    0.1200
55     H55     6.6914   -3.0223    1.9523 H        1 ZINC000003781943    0.1200
56     H56     6.5697   -2.9462   -0.5074 H        1 ZINC000003781943    0.1200
57     H57     6.0307   -3.9244   -3.7873 H        1 ZINC000003781943    0.0800
58     H58     7.0500   -3.9987   -2.3300 H        1 ZINC000003781943    0.0700
@<TRIPOS>BOND
1     1     2     1
2     1     34    1
3     1     35    1
4     1     36    1
5     2     3     1
6     2     37    1
7     2     38    1
8     3     4     1
9     4     5     2
10    4     6     1
11    6     7     1
12    6     8     1
13    6     16    1
14    8     9     1
15    8     39    1
16    8     40    1
17    9     10    1
18    9     41    1
19    9     42    1
20    10    15    ar
21    10    11    ar
22    11    12    ar
23    11    43    1
24    12    13    ar
25    12    44    1
26    13    14    ar
27    13    45    1
28    14    15    ar
29    14    46    1
30    15    47    1
31    16    17    1
32    16    48    1
33    17    18    1
34    17    32    1
35    17    19    1
36    19    20    1
37    19    49    1
38    19    50    1
39    20    21    1
40    20    51    1
41    20    52    1
42    21    26    ar
43    21    22    ar
44    22    23    ar
45    22    53    1
46    23    24    ar
47    23    54    1
48    24    25    ar
49    24    55    1
50    25    26    ar
51    25    56    1
52    26    27    1
53    27    28    1
54    27    32    am
55    28    29    1
56    28    57    1
57    28    58    1
58    29    30    ar
59    29    31    ar
60    32    33    2
@<TRIPOS>SUBSTRUCTURE
1   ZINC000003781943 1     RESIDUE    1   A     ZIN   1
