@<TRIPOS>MOLECULE
ZINC000003776633
49   51    0    0    0
SMALL
USER_CHARGES
NO_NAME
@<TRIPOS>ATOM
1 C1       -0.0184     1.5028     0.0103 C.3    1 <0>      -0.1100
2 C2        0.0021    -0.0041     0.0020 C.ar   1 <0>      -0.0800
3 C3        0.0057    -0.6865    -1.2013 C.ar   1 <0>      -0.1200
4 C4        0.0244    -2.0663    -1.2150 C.ar   1 <0>      -0.0800
5 C5        0.0401    -2.7724    -0.0132 C.ar   1 <0>      -0.0400
6 C6        0.0607    -4.2552    -0.0214 C.2    1 <0>      -0.0200
7 C7        1.1229    -4.9124     0.4597 C.2    1 <0>      -0.1200
8 C8        2.2978    -4.1455     1.0097 C.3    1 <0>       0.0700
9 N9        2.5756    -4.5924     2.3812 N.3    1 <0>      -0.5100
10 C10       3.1837    -5.9475     2.3866 C.3    1 <0>       0.0300
11 C11       3.8694    -6.0228     3.7740 C.3    1 <0>      -0.1200
12 C12       4.4116    -4.5884     3.9699 C.3    1 <0>      -0.1300
13 C13       3.5603    -3.7059     3.0383 C.3    1 <0>       0.0400
14 C14      -1.0952    -5.0096    -0.5624 C.ar   1 <0>       0.1700
15 C15      -1.0704    -6.4063    -0.5613 C.ar   1 <0>      -0.1900
16 C16      -2.1536    -7.1041    -1.0682 C.ar   1 <0>      -0.0700
17 C17      -3.2321    -6.3881    -1.5625 C.ar   1 <0>      -0.1700
18 C18      -3.1947    -4.9915    -1.5348 C.ar   1 <0>       0.1900
19 C19      -4.3363    -4.2204    -2.0574 C.2    1 <0>      -0.1500
20 C20      -4.3069    -2.8716    -2.0337 C.2    1 <0>      -0.1200
21 C21      -5.4394    -2.1066    -2.5521 C.2    1 <0>       0.5000
22 O22      -6.4150    -2.6898    -3.0079 O.co2  1 <0>      -0.6900
23 O23      -5.4127    -0.8825    -2.5306 O.co2  1 <0>      -0.6900
24 N24      -2.1420    -4.3526    -1.0364 N.ar   1 <0>      -0.4600
25 C25       0.0368    -2.0794     1.1962 C.ar   1 <0>      -0.1000
26 C26       0.0229    -0.6994     1.1977 C.ar   1 <0>      -0.1300
27 H27       1.0042     1.8801     0.0026 H      1 <0>       0.0700
28 H28      -0.5455     1.8639    -0.8728 H      1 <0>       0.0700
29 H29      -0.5286     1.8543     0.9071 H      1 <0>       0.0600
30 H30      -0.0064    -0.1384    -2.1318 H      1 <0>       0.1200
31 H31       0.0265    -2.5981    -2.1550 H      1 <0>       0.1200
32 H32       1.1379    -5.9923     0.4538 H      1 <0>       0.1200
33 H33       3.1730    -4.3244     0.3850 H      1 <0>       0.0500
34 H34       2.0664    -3.0804     1.0144 H      1 <0>       0.0900
35 H35       2.4148    -6.7147     2.2954 H      1 <0>       0.0800
36 H36       3.9196    -6.0421     1.5882 H      1 <0>       0.0400
37 H37       3.1446    -6.2705     4.5495 H      1 <0>       0.0700
38 H38       4.6854    -6.7454     3.7622 H      1 <0>       0.0700
39 H39       4.2866    -4.2750     5.0064 H      1 <0>       0.0700
40 H40       5.4619    -4.5384     3.6828 H      1 <0>       0.0600
41 H41       4.1964    -3.2366     2.2878 H      1 <0>       0.0400
42 H42       3.0430    -2.9429     3.6200 H      1 <0>       0.0800
43 H43      -0.2149    -6.9364    -0.1694 H      1 <0>       0.1300
44 H44      -2.1576    -8.1841    -1.0785 H      1 <0>       0.1300
45 H45      -4.0916    -6.9035    -1.9649 H      1 <0>       0.1400
46 H46      -5.1967    -4.7348    -2.4594 H      1 <0>       0.1300
47 H47      -3.4465    -2.3572    -1.6317 H      1 <0>       0.1100
48 H48       0.0489    -2.6214     2.1303 H      1 <0>       0.1200
49 H49       0.0203    -0.1615     2.1341 H      1 <0>       0.1200
@<TRIPOS>BOND
1    1    2 1
2    1   27 1
3    1   28 1
4    1   29 1
5    2   26 ar
6    2    3 ar
7    3    4 ar
8    3   30 1
9    4    5 ar
10    4   31 1
11    5    6 1
12    5   25 ar
13    6    7 2
14    6   14 1
15    7    8 1
16    7   32 1
17    8    9 1
18    8   33 1
19    8   34 1
20    9   13 1
21    9   10 1
22   10   11 1
23   10   35 1
24   10   36 1
25   11   12 1
26   11   37 1
27   11   38 1
28   12   13 1
29   12   39 1
30   12   40 1
31   13   41 1
32   13   42 1
33   14   24 ar
34   14   15 ar
35   15   16 ar
36   15   43 1
37   16   17 ar
38   16   44 1
39   17   18 ar
40   17   45 1
41   18   19 1
42   18   24 ar
43   19   20 2
44   19   46 1
45   20   21 1
46   20   47 1
47   21   22 ar
48   21   23 ar
49   25   26 ar
50   25   48 1
51   26   49 1
