@<TRIPOS>MOLECULE
ZINC000001633887
47    47    1     0     0
SMALL
USER_CHARGES
@<TRIPOS>ATOM
1      C1     -1.1438    2.3506   -0.4125 C.3      1 ZINC000001633887   -0.1500
2      C2     -0.7833    0.9113   -0.0393 C.3      1 ZINC000001633887   -0.1300
3      C3     -2.0343    0.0343   -0.1224 C.3      1 ZINC000001633887   -0.1200
4      C4     -1.6738   -1.4050    0.2508 C.3      1 ZINC000001633887   -0.1100
5      C5     -2.9248   -2.2820    0.1677 C.3      1 ZINC000001633887   -0.0900
6      H6     -3.7100   -1.8549    0.7915 H        1 ZINC000001633887    0.0800
7      C7     -3.4056   -2.3484   -1.2833 C.3      1 ZINC000001633887   -0.1200
8      C8     -4.7440   -3.0874   -1.3437 C.3      1 ZINC000001633887   -0.1500
9      C9     -2.5928   -3.6921    0.6599 C.3      1 ZINC000001633887    0.0700
10     O10    -3.7909   -4.4680    0.7261 O.3      1 ZINC000001633887   -0.3400
11     C11    -3.6714   -5.7450    1.1450 C.2      1 ZINC000001633887    0.5000
12     O12    -2.5786   -6.1867    1.4458 O.2      1 ZINC000001633887   -0.5200
13     C13    -4.8195   -6.5721    1.2347 C.2      1 ZINC000001633887   -0.2200
14     C14    -4.6999   -7.8507    1.6541 C.2      1 ZINC000001633887    0.0200
15     C15    -5.8899   -8.7079    1.7470 C.ar     1 ZINC000001633887   -0.1300
16     C16    -7.1478   -8.2038    1.3959 C.ar     1 ZINC000001633887   -0.0500
17     C17    -8.2592   -9.0111    1.4843 C.ar     1 ZINC000001633887   -0.1600
18     C18    -8.1342  -10.3248    1.9218 C.ar     1 ZINC000001633887    0.1500
19     O19    -9.2332  -11.1167    2.0072 O.3      1 ZINC000001633887   -0.3100
20     C20    -9.0339  -12.4560    2.4640 C.3      1 ZINC000001633887    0.0200
21     C21    -6.8872  -10.8304    2.2717 C.ar     1 ZINC000001633887   -0.2100
22     C22    -5.7686  -10.0332    2.1814 C.ar     1 ZINC000001633887   -0.0400
23     H23    -0.2526    2.9754   -0.3533 H        1 ZINC000001633887    0.0500
24     H24    -1.5376    2.3747   -1.4286 H        1 ZINC000001633887    0.0500
25     H25    -1.8980    2.7271    0.2785 H        1 ZINC000001633887    0.0500
26     H26    -0.0291    0.5348   -0.7303 H        1 ZINC000001633887    0.0600
27     H27    -0.3895    0.8871    0.9768 H        1 ZINC000001633887    0.0600
28     H28    -2.7885    0.4108    0.5686 H        1 ZINC000001633887    0.0600
29     H29    -2.4281    0.0584   -1.1385 H        1 ZINC000001633887    0.0700
30     H30    -0.9196   -1.7815   -0.4402 H        1 ZINC000001633887    0.0700
31     H31    -1.2800   -1.4292    1.2669 H        1 ZINC000001633887    0.0700
32     H32    -3.5310   -1.3374   -1.6711 H        1 ZINC000001633887    0.0700
33     H33    -2.6694   -2.8801   -1.8861 H        1 ZINC000001633887    0.0600
34     H34    -5.1607   -3.0027   -2.3474 H        1 ZINC000001633887    0.0500
35     H35    -4.5896   -4.1389   -1.1019 H        1 ZINC000001633887    0.0700
36     H36    -5.4350   -2.6469   -0.6250 H        1 ZINC000001633887    0.0500
37     H37    -1.8929   -4.1626   -0.0307 H        1 ZINC000001633887    0.0700
38     H38    -2.1421   -3.6343    1.6507 H        1 ZINC000001633887    0.0700
39     H39    -5.7897   -6.1799    0.9676 H        1 ZINC000001633887    0.1400
40     H40    -3.7297   -8.2428    1.9211 H        1 ZINC000001633887    0.1400
41     H41    -7.2462   -7.1832    1.0567 H        1 ZINC000001633887    0.1400
42     H42    -9.2302   -8.6231    1.2138 H        1 ZINC000001633887    0.1400
43     H43    -9.9902  -12.9787    2.4853 H        1 ZINC000001633887    0.1000
44     H44    -8.3524  -12.9727    1.7883 H        1 ZINC000001633887    0.0600
45     H45    -8.6072  -12.4381    3.4668 H        1 ZINC000001633887    0.0600
46     H46    -6.7954  -11.8515    2.6112 H        1 ZINC000001633887    0.1300
47     H47    -4.8004  -10.4269    2.4534 H        1 ZINC000001633887    0.1300
@<TRIPOS>BOND
1     1     2     1
2     1     23    1
3     1     24    1
4     1     25    1
5     2     3     1
6     2     26    1
7     2     27    1
8     3     4     1
9     3     28    1
10    3     29    1
11    4     5     1
12    4     30    1
13    4     31    1
14    5     6     1
15    5     7     1
16    5     9     1
17    7     8     1
18    7     32    1
19    7     33    1
20    8     34    1
21    8     35    1
22    8     36    1
23    9     10    1
24    9     37    1
25    9     38    1
26    10    11    1
27    11    12    2
28    11    13    1
29    13    14    2
30    13    39    1
31    14    15    1
32    14    40    1
33    15    22    ar
34    15    16    ar
35    16    17    ar
36    16    41    1
37    17    18    ar
38    17    42    1
39    18    19    1
40    18    21    ar
41    19    20    1
42    20    43    1
43    20    44    1
44    20    45    1
45    21    22    ar
46    21    46    1
47    22    47    1
@<TRIPOS>SUBSTRUCTURE
1   ZINC000001633887 1     RESIDUE    1   A     ZIN   1
