@<TRIPOS>MOLECULE
ZINC000019632834
43    46    1     0     0
SMALL
USER_CHARGES
@<TRIPOS>ATOM
1      C1      2.1524    1.4970    1.6225 C.3      1 ZINC000019632834    0.0300
2      N2      1.1863    0.4034    1.4533 N.3      1 ZINC000019632834   -0.5400
3      C3      0.1335    0.4682    2.4757 C.3      1 ZINC000019632834    0.0400
4      C4     -0.9464   -0.5719    2.1588 C.3      1 ZINC000019632834    0.1400
5      N5     -0.3013   -1.8855    2.0127 N.am     1 ZINC000019632834   -0.6000
6      C6     -0.7550   -2.9582    2.6909 C.2      1 ZINC000019632834    0.6500
7      O7     -1.6487   -2.8294    3.5046 O.2      1 ZINC000019632834   -0.5700
8      O8     -0.2187   -4.1719    2.4672 O.3      1 ZINC000019632834   -0.2400
9      C9     -0.7944   -5.2288    3.1034 C.2      1 ZINC000019632834    0.0700
10     C10    -0.2534   -5.8815    4.1404 C.2      1 ZINC000019632834    0.1100
11     N11     0.9322   -5.7694    4.8810 N.pl3    1 ZINC000019632834   -0.5000
12     C12     1.1350   -6.6485    5.9013 C.2      1 ZINC000019632834    0.1100
13     C13     0.2184   -7.6069    6.1954 C.2      1 ZINC000019632834   -0.1100
14     N14    -0.9147   -7.7473    5.5199 N.2      1 ZINC000019632834   -0.3400
15     C15    -1.2067   -6.9504    4.5186 C.2      1 ZINC000019632834   -0.1200
16     C16    -2.3233   -6.8141    3.5796 C.2      1 ZINC000019632834    0.5700
17     O17    -3.3292   -7.5023    3.5402 O.2      1 ZINC000019632834   -0.5400
18     N18    -2.0259   -5.7757    2.7712 N.am     1 ZINC000019632834   -0.4300
19     C19    -2.8419   -5.3197    1.7341 C.ar     1 ZINC000019632834    0.3900
20     C20    -4.0601   -5.9431    1.4921 C.ar     1 ZINC000019632834   -0.1900
21     C21    -4.8600   -5.4813    0.4613 C.ar     1 ZINC000019632834   -0.0400
22     C22    -4.4107   -4.4066   -0.2951 C.ar     1 ZINC000019632834   -0.1300
23     Cl23   -5.3749   -3.7875   -1.5992 Cl       1 ZINC000019632834   -0.0700
24     C24    -3.1877   -3.8349    0.0021 C.ar     1 ZINC000019632834    0.1500
25     N25    -2.4501   -4.2944    0.9944 N.ar     1 ZINC000019632834   -0.4900
26     C26     0.8518   -1.9977    1.1067 C.3      1 ZINC000019632834    0.1200
27     C27     1.8609   -0.9015    1.4650 C.3      1 ZINC000019632834    0.0400
28     H28     2.8770    1.4708    0.8086 H        1 ZINC000019632834    0.0700
29     H29     1.6265    2.4516    1.6101 H        1 ZINC000019632834    0.0700
30     H30     2.6707    1.3800    2.5742 H        1 ZINC000019632834    0.0200
31     H31     0.5640    0.2587    3.4549 H        1 ZINC000019632834    0.0400
32     H32    -0.3101    1.4638    2.4784 H        1 ZINC000019632834    0.0900
33     H33    -1.6702   -0.6079    2.9729 H        1 ZINC000019632834    0.0900
34     H34    -1.4495   -0.3057    1.2292 H        1 ZINC000019632834    0.0700
35     H35     2.0403   -6.5826    6.4865 H        1 ZINC000019632834    0.1500
36     H36     0.4207   -8.2831    7.0129 H        1 ZINC000019632834    0.1400
37     H37    -4.3783   -6.7771    2.1001 H        1 ZINC000019632834    0.1800
38     H38    -5.8115   -5.9463    0.2497 H        1 ZINC000019632834    0.1500
39     H39    -2.8334   -2.9992   -0.5831 H        1 ZINC000019632834    0.1600
40     H40     1.3169   -2.9764    1.2252 H        1 ZINC000019632834    0.1000
41     H41     0.5215   -1.8685    0.0760 H        1 ZINC000019632834    0.0700
42     H42     2.6701   -0.8992    0.7347 H        1 ZINC000019632834    0.0900
43     H43     2.2674   -1.0919    2.4583 H        1 ZINC000019632834    0.0400
@<TRIPOS>BOND
1     1     2     1
2     1     28    1
3     1     29    1
4     1     30    1
5     2     27    1
6     2     3     1
7     3     4     1
8     3     31    1
9     3     32    1
10    4     5     1
11    4     33    1
12    4     34    1
13    5     6     am
14    5     26    1
15    6     7     2
16    6     8     1
17    8     9     1
18    9     18    1
19    9     10    2
20    10    15    1
21    10    11    1
22    11    12    1
23    12    13    2
24    12    35    1
25    13    14    1
26    13    36    1
27    14    15    2
28    15    16    1
29    16    17    2
30    16    18    am
31    18    19    1
32    19    25    ar
33    19    20    ar
34    20    21    ar
35    20    37    1
36    21    22    ar
37    21    38    1
38    22    23    1
39    22    24    ar
40    24    25    ar
41    24    39    1
42    26    27    1
43    26    40    1
44    26    41    1
45    27    42    1
46    27    43    1
@<TRIPOS>SUBSTRUCTURE
1   ZINC000019632834 1     RESIDUE    1   A     ZIN   1
