@<TRIPOS>MOLECULE
ZINC000028108825
89    91    1     0     0
SMALL
USER_CHARGES
@<TRIPOS>ATOM
1      O1     -1.2942    3.9857    5.3433 O.co2    1 ZINC000028108825   -0.6900
2      C2     -2.5033    3.8821    5.4603 C.2      1 ZINC000028108825    0.5000
3      O3     -3.0269    4.0488    6.5487 O.co2    1 ZINC000028108825   -0.7400
4      C4     -3.3514    3.5541    4.2585 C.3      1 ZINC000028108825    0.0100
5      N5     -2.4908    3.4094    3.0768 N.3      1 ZINC000028108825   -0.4900
6      C6     -3.2439    2.8604    1.9412 C.3      1 ZINC000028108825    0.0700
7      C7     -3.4615    1.3605    2.1508 C.3      1 ZINC000028108825    0.0700
8      N8     -4.1210    0.7914    0.9680 N.3      1 ZINC000028108825   -0.4800
9      C9     -3.2085    0.7672   -0.1829 C.3      1 ZINC000028108825   -0.0100
10     C10    -4.0042    0.5965   -1.4513 C.2      1 ZINC000028108825    0.4900
11     O11    -5.2226    0.6224   -1.4148 O.co2    1 ZINC000028108825   -0.6400
12     O12    -3.4295    0.4324   -2.5140 O.co2    1 ZINC000028108825   -0.7500
13     C13    -4.6453   -0.5510    1.2525 C.3      1 ZINC000028108825    0.0300
14     C14    -5.8306   -0.4425    2.2139 C.3      1 ZINC000028108825    0.1000
15     H15    -5.5247    0.1010    3.1078 H        1 ZINC000028108825    0.0800
16     C16    -6.2998   -1.8451    2.6053 C.3      1 ZINC000028108825    0.1800
17     O17    -7.3490   -1.7444    3.5703 O.3      1 ZINC000028108825   -0.7000
18     P18    -7.9778   -3.0237    4.3187 P.3      1 ZINC000028108825    2.2500
19     O19    -6.8495   -3.8239    5.0068 O.co2    1 ZINC000028108825   -1.1500
20     O20    -8.6924   -3.9244    3.2866 O.co2    1 ZINC000028108825   -1.1000
21     O21    -9.0379   -2.5305    5.4256 O.3      1 ZINC000028108825   -0.7400
22     C22    -9.6907   -3.4234    6.3303 C.3      1 ZINC000028108825    0.1800
23     C23    -9.3471   -3.0329    7.7692 C.3      1 ZINC000028108825   -0.1400
24     C24   -10.0460   -3.9890    8.7379 C.3      1 ZINC000028108825   -0.1000
25     C25   -11.5601   -3.9046    8.5342 C.3      1 ZINC000028108825    0.0100
26     C26   -12.2485   -4.8463    9.4883 C.ar     1 ZINC000028108825   -0.0400
27     C27   -11.4997   -5.6831   10.2944 C.ar     1 ZINC000028108825   -0.1200
28     C28   -12.1311   -6.5469   11.1696 C.ar     1 ZINC000028108825   -0.1200
29     C29   -13.5115   -6.5735   11.2390 C.ar     1 ZINC000028108825   -0.1400
30     C30   -14.2603   -5.7361   10.4335 C.ar     1 ZINC000028108825   -0.1300
31     C31   -13.6287   -4.8692    9.5614 C.ar     1 ZINC000028108825   -0.1100
32     C32   -12.0245   -2.4952    8.7967 C.ar     1 ZINC000028108825   -0.0500
33     C33   -12.9085   -1.8854    7.9264 C.ar     1 ZINC000028108825   -0.1100
34     C34   -13.3345   -0.5925    8.1672 C.ar     1 ZINC000028108825   -0.1200
35     C35   -12.8769    0.0903    9.2785 C.ar     1 ZINC000028108825   -0.1300
36     C36   -11.9935   -0.5198   10.1494 C.ar     1 ZINC000028108825   -0.1200
37     C37   -11.5709   -1.8142    9.9109 C.ar     1 ZINC000028108825   -0.1100
38     C38   -11.9037   -4.2951    7.0953 C.3      1 ZINC000028108825   -0.1000
39     C39   -11.2047   -3.3391    6.1266 C.3      1 ZINC000028108825   -0.1500
40     N40    -6.9303    0.2760    1.5562 N.3      1 ZINC000028108825   -0.4500
41     C41    -6.6190    1.7053    1.4213 C.3      1 ZINC000028108825   -0.0300
42     C42    -6.6521    2.3570    2.7797 C.2      1 ZINC000028108825    0.5000
43     O43    -7.0077    1.7169    3.7545 O.co2    1 ZINC000028108825   -0.6800
44     O44    -6.3234    3.5245    2.9038 O.co2    1 ZINC000028108825   -0.7400
45     C45    -7.2423   -0.3204    0.2505 C.3      1 ZINC000028108825   -0.0100
46     C46    -8.1965   -1.4715    0.4391 C.2      1 ZINC000028108825    0.4800
47     O47    -8.6773   -1.6910    1.5378 O.co2    1 ZINC000028108825   -0.6300
48     O48    -8.4876   -2.1833   -0.5069 O.co2    1 ZINC000028108825   -0.7700
49     C49    -1.8631    4.6894    2.7227 C.3      1 ZINC000028108825    0.0100
50     C50    -0.7012    4.4398    1.7961 C.2      1 ZINC000028108825    0.5100
51     O51    -0.4333    3.3028    1.4469 O.co2    1 ZINC000028108825   -0.6800
52     O52    -0.0291    5.3749    1.3955 O.co2    1 ZINC000028108825   -0.7600
53     H53    -3.8862    2.6208    4.4350 H        1 ZINC000028108825    0.0700
54     H54    -4.0684    4.3574    4.0897 H        1 ZINC000028108825    0.0300
55     H55    -4.2095    3.3611    1.8695 H        1 ZINC000028108825    0.0500
56     H56    -2.6821    3.0210    1.0211 H        1 ZINC000028108825    0.0600
57     H57    -2.4991    0.8713    2.3009 H        1 ZINC000028108825    0.0100
58     H58    -4.0895    1.2036    3.0278 H        1 ZINC000028108825    0.0700
59     H59    -2.6529    1.7040   -0.2259 H        1 ZINC000028108825    0.0700
60     H60    -2.5115   -0.0640   -0.0766 H        1 ZINC000028108825    0.0100
61     H61    -4.9726   -1.0177    0.3234 H        1 ZINC000028108825    0.0800
62     H62    -3.8626   -1.1578    1.7077 H        1 ZINC000028108825    0.0000
63     H63    -6.6683   -2.3650    1.7210 H        1 ZINC000028108825    0.0500
64     H64    -5.4654   -2.4014    3.0325 H        1 ZINC000028108825    0.0000
65     H65    -9.3548   -4.4428    6.1404 H        1 ZINC000028108825    0.0400
66     H66    -8.2685   -3.0930    7.9143 H        1 ZINC000028108825    0.0800
67     H67    -9.6830   -2.0135    7.9591 H        1 ZINC000028108825    0.0700
68     H68    -9.7101   -5.0084    8.5480 H        1 ZINC000028108825    0.0700
69     H69    -9.8013   -3.7107    9.7629 H        1 ZINC000028108825    0.0600
70     H70   -10.4212   -5.6622   10.2402 H        1 ZINC000028108825    0.1300
71     H71   -11.5461   -7.2011   11.7989 H        1 ZINC000028108825    0.1100
72     H72   -14.0049   -7.2489   11.9223 H        1 ZINC000028108825    0.1100
73     H73   -15.3388   -5.7572   10.4875 H        1 ZINC000028108825    0.1100
74     H74   -14.2138   -4.2150    8.9321 H        1 ZINC000028108825    0.1200
75     H75   -13.2661   -2.4188    7.0581 H        1 ZINC000028108825    0.1300
76     H76   -14.0247   -0.1158    7.4868 H        1 ZINC000028108825    0.1200
77     H77   -13.2092    1.1006    9.4663 H        1 ZINC000028108825    0.1100
78     H78   -11.6357    0.0138   11.0175 H        1 ZINC000028108825    0.1100
79     H79   -10.8808   -2.2909   10.5912 H        1 ZINC000028108825    0.1200
80     H80   -11.5677   -5.3145    6.9054 H        1 ZINC000028108825    0.0700
81     H81   -12.9823   -4.2350    6.9502 H        1 ZINC000028108825    0.0600
82     H82   -11.5406   -2.3197    6.3165 H        1 ZINC000028108825    0.0800
83     H83   -11.4495   -3.6173    5.1016 H        1 ZINC000028108825    0.0800
84     H84    -5.6261    1.8215    0.9867 H        1 ZINC000028108825    0.1100
85     H85    -7.3569    2.1782    0.7733 H        1 ZINC000028108825    0.0100
86     H86    -7.7019    0.4310   -0.3916 H        1 ZINC000028108825    0.0300
87     H87    -6.3241   -0.6817   -0.2127 H        1 ZINC000028108825    0.0600
88     H88    -2.5939    5.3272    2.2255 H        1 ZINC000028108825   -0.0100
89     H89    -1.5070    5.1820    3.6275 H        1 ZINC000028108825    0.0800
@<TRIPOS>BOND
1     1     2     ar
2     2     3     ar
3     2     4     1
4     4     5     1
5     4     53    1
6     4     54    1
7     5     6     1
8     5     49    1
9     6     7     1
10    6     55    1
11    6     56    1
12    7     8     1
13    7     57    1
14    7     58    1
15    8     9     1
16    8     13    1
17    9     10    1
18    9     59    1
19    9     60    1
20    10    11    ar
21    10    12    ar
22    13    14    1
23    13    61    1
24    13    62    1
25    14    15    1
26    14    16    1
27    14    40    1
28    16    17    1
29    16    63    1
30    16    64    1
31    17    18    1
32    18    19    ar
33    18    20    ar
34    18    21    1
35    21    22    1
36    22    39    1
37    22    23    1
38    22    65    1
39    23    24    1
40    23    66    1
41    23    67    1
42    24    25    1
43    24    68    1
44    24    69    1
45    25    26    1
46    25    32    1
47    25    38    1
48    26    31    ar
49    26    27    ar
50    27    28    ar
51    27    70    1
52    28    29    ar
53    28    71    1
54    29    30    ar
55    29    72    1
56    30    31    ar
57    30    73    1
58    31    74    1
59    32    37    ar
60    32    33    ar
61    33    34    ar
62    33    75    1
63    34    35    ar
64    34    76    1
65    35    36    ar
66    35    77    1
67    36    37    ar
68    36    78    1
69    37    79    1
70    38    39    1
71    38    80    1
72    38    81    1
73    39    82    1
74    39    83    1
75    40    41    1
76    40    45    1
77    41    42    1
78    41    84    1
79    41    85    1
80    42    43    ar
81    42    44    ar
82    45    46    1
83    45    86    1
84    45    87    1
85    46    47    ar
86    46    48    ar
87    49    50    1
88    49    88    1
89    49    89    1
90    50    51    ar
91    50    52    ar
@<TRIPOS>SUBSTRUCTURE
1   ZINC000028108825 1     RESIDUE    1   A     ZIN   1
