@<TRIPOS>MOLECULE
ZINC000008101126
10    9    0    0    0
SMALL
USER_CHARGES
NO_NAME
@<TRIPOS>ATOM
1 N1       -0.0161     1.3368     0.0094 N.pl3  1 <0>      -0.8000
2 C2        0.0021    -0.0041     0.0020 C.cat  1 <0>       0.7500
3 N3        1.1724    -0.6587    -0.0127 N.pl3  1 <0>      -0.8000
4 N4       -1.1500    -0.6903     0.0093 N.pl3  1 <0>      -0.8000
5 H5       -1.1369    -1.6602     0.0040 H      1 <0>       0.4400
6 H6       -1.9965    -0.2168     0.0200 H      1 <0>       0.4400
7 H7        0.8172     1.8332     0.0041 H      1 <0>       0.4400
8 H8       -0.8626     1.8103     0.0160 H      1 <0>       0.4400
9 H9        2.0057    -0.1623    -0.0180 H      1 <0>       0.4400
10 H10       1.1855    -1.6286    -0.0180 H      1 <0>       0.4400
@<TRIPOS>BOND
1    1    2 ar
2    1    7 1
3    1    8 1
4    2    3 ar
5    2    4 ar
6    3    9 1
7    3   10 1
8    4    5 1
9    4    6 1
