@<TRIPOS>MOLECULE
ZINC000003812863
59    60    1     0     0
SMALL
USER_CHARGES
@<TRIPOS>ATOM
1      N1     -0.0116    1.0048    0.0076 N.4      1 ZINC000003812863   -0.6400
2      H2      0.0021   -0.0041    0.0020 H        1 ZINC000003812863    0.4300
3      H3      0.9350    1.3541    0.0004 H        1 ZINC000003812863    0.4300
4      H4     -0.4996    1.3391   -0.8099 H        1 ZINC000003812863    0.4300
5      C5     -0.6992    1.4786    1.2162 C.3      1 ZINC000003812863   -0.0100
6      C6      0.0408    0.9717    2.4557 C.3      1 ZINC000003812863   -0.1500
7      C7     -0.6753    1.4652    3.7145 C.3      1 ZINC000003812863   -0.1000
8      C8      0.0647    0.9583    4.9540 C.3      1 ZINC000003812863   -0.1000
9      C9     -0.6515    1.4517    6.2128 C.3      1 ZINC000003812863    0.0900
10     H10    -1.6981    1.1493    6.1776 H        1 ZINC000003812863    0.0900
11     N11    -0.5671    2.9167    6.2818 N.3      1 ZINC000003812863   -0.6300
12     C12    -1.6743    3.4712    7.0722 C.3      1 ZINC000003812863    0.0200
13     H13    -1.9158    2.7892    7.8875 H        1 ZINC000003812863    0.0300
14     C14    -1.2612    4.8275    7.6472 C.3      1 ZINC000003812863   -0.0900
15     C15    -0.1133    4.6323    8.6398 C.3      1 ZINC000003812863   -0.0800
16     C16     0.2936    5.9682    9.2062 C.ar     1 ZINC000003812863   -0.0600
17     C17     1.2673    6.7192    8.5746 C.ar     1 ZINC000003812863   -0.1200
18     C18     1.6406    7.9446    9.0941 C.ar     1 ZINC000003812863   -0.1200
19     C19     1.0398    8.4193   10.2451 C.ar     1 ZINC000003812863   -0.1400
20     C20     0.0655    7.6688   10.8762 C.ar     1 ZINC000003812863   -0.1200
21     C21    -0.3108    6.4453   10.3542 C.ar     1 ZINC000003812863   -0.1200
22     C22    -2.8829    3.6469    6.1894 C.2      1 ZINC000003812863    0.5100
23     O23    -2.8272    3.3388    5.0111 O.co2    1 ZINC000003812863   -0.6900
24     O24    -3.9165    4.0972    6.6536 O.co2    1 ZINC000003812863   -0.7100
25     C25     0.0036    0.8530    7.4308 C.2      1 ZINC000003812863    0.5000
26     O26     0.4926    1.5755    8.2733 O.2      1 ZINC000003812863   -0.5300
27     N27     0.0460   -0.4854    7.5838 N.am     1 ZINC000003812863   -0.5900
28     C28    -0.5008   -1.4760    6.6388 C.3      1 ZINC000003812863    0.1100
29     C29    -0.7675   -2.7377    7.4971 C.3      1 ZINC000003812863   -0.1300
30     C30     0.4359   -2.7085    8.4761 C.3      1 ZINC000003812863   -0.1100
31     C31     0.6510   -1.1995    8.7177 C.3      1 ZINC000003812863    0.0600
32     H32     0.1602   -0.8985    9.6433 H        1 ZINC000003812863    0.0600
33     C33     2.1254   -0.8984    8.7983 C.2      1 ZINC000003812863    0.5000
34     O34     2.7509   -0.6390    7.7844 O.co2    1 ZINC000003812863   -0.6900
35     O35     2.6927   -0.9142    9.8773 O.co2    1 ZINC000003812863   -0.7000
36     H36    -0.7140    2.5685    1.2222 H        1 ZINC000003812863    0.1400
37     H37    -1.7218    1.1013    1.2239 H        1 ZINC000003812863    0.1300
38     H38     0.0556   -0.1181    2.4497 H        1 ZINC000003812863    0.0800
39     H39     1.0634    1.3490    2.4480 H        1 ZINC000003812863    0.0800
40     H40    -0.6901    2.5550    3.7205 H        1 ZINC000003812863    0.1000
41     H41    -1.6979    1.0879    3.7222 H        1 ZINC000003812863    0.0700
42     H42     0.0794   -0.1316    4.9480 H        1 ZINC000003812863    0.0700
43     H43     1.0873    1.3356    4.9463 H        1 ZINC000003812863    0.0600
44     H44     0.3243    3.2105    6.6522 H        1 ZINC000003812863    0.3300
45     H45    -0.9348    5.4810    6.8382 H        1 ZINC000003812863    0.0600
46     H46    -2.1110    5.2793    8.1589 H        1 ZINC000003812863    0.0700
47     H47    -0.4396    3.9788    9.4488 H        1 ZINC000003812863    0.0700
48     H48     0.7366    4.1805    8.1282 H        1 ZINC000003812863    0.0800
49     H49     1.7367    6.3483    7.6754 H        1 ZINC000003812863    0.1200
50     H50     2.4018    8.5309    8.6011 H        1 ZINC000003812863    0.1200
51     H51     1.3319    9.3763   10.6514 H        1 ZINC000003812863    0.1100
52     H52    -0.4037    8.0395   11.7755 H        1 ZINC000003812863    0.1200
53     H53    -1.0721    5.8589   10.8473 H        1 ZINC000003812863    0.1200
54     H54    -1.4304   -1.1108    6.2021 H        1 ZINC000003812863    0.0700
55     H55     0.2260   -1.6958    5.8568 H        1 ZINC000003812863    0.0600
56     H56    -1.7113   -2.6517    8.0354 H        1 ZINC000003812863    0.0700
57     H57    -0.7501   -3.6385    6.8835 H        1 ZINC000003812863    0.0700
58     H58     0.1883   -3.2190    9.4068 H        1 ZINC000003812863    0.0700
59     H59     1.3188   -3.1513    8.0152 H        1 ZINC000003812863    0.0700
@<TRIPOS>BOND
1     1     2     1
2     1     3     1
3     1     4     1
4     1     5     1
5     5     6     1
6     5     36    1
7     5     37    1
8     6     7     1
9     6     38    1
10    6     39    1
11    7     8     1
12    7     40    1
13    7     41    1
14    8     9     1
15    8     42    1
16    8     43    1
17    9     10    1
18    9     11    1
19    9     25    1
20    11    12    1
21    11    44    1
22    12    13    1
23    12    14    1
24    12    22    1
25    14    15    1
26    14    45    1
27    14    46    1
28    15    16    1
29    15    47    1
30    15    48    1
31    16    21    ar
32    16    17    ar
33    17    18    ar
34    17    49    1
35    18    19    ar
36    18    50    1
37    19    20    ar
38    19    51    1
39    20    21    ar
40    20    52    1
41    21    53    1
42    22    23    ar
43    22    24    ar
44    25    26    2
45    25    27    am
46    27    31    1
47    27    28    1
48    28    29    1
49    28    54    1
50    28    55    1
51    29    30    1
52    29    56    1
53    29    57    1
54    30    31    1
55    30    58    1
56    30    59    1
57    31    32    1
58    31    33    1
59    33    34    ar
60    33    35    ar
@<TRIPOS>SUBSTRUCTURE
1   ZINC000003812863 1     RESIDUE    1   A     ZIN   1
