@<TRIPOS>MOLECULE
ZINC000000897258
49    50    1     0     0
SMALL
USER_CHARGES
@<TRIPOS>ATOM
1      C1     -0.0357    1.3645    0.0509 C.3      1 ZINC000000897258    0.0200
2      O2     -0.0228   -0.0644    0.0402 O.3      1 ZINC000000897258   -0.3100
3      C3     -1.2280   -0.6922    0.0425 C.ar     1 ZINC000000897258    0.1400
4      C4     -2.3990    0.0517    0.0490 C.ar     1 ZINC000000897258   -0.2000
5      C5     -3.6229   -0.5890    0.0509 C.ar     1 ZINC000000897258   -0.0900
6      C6     -3.6815   -1.9704    0.0467 C.ar     1 ZINC000000897258   -0.1700
7      C7     -5.0180   -2.6666    0.0492 C.3      1 ZINC000000897258   -0.0900
8      C8     -5.4754   -2.8977   -1.3924 C.3      1 ZINC000000897258    0.0300
9      H9     -4.7030   -3.4418   -1.9359 H        1 ZINC000000897258    0.1400
10     C10    -6.7697   -3.7137   -1.3922 C.3      1 ZINC000000897258   -0.1800
11     N11    -5.7130   -1.6029   -2.0442 N.4      1 ZINC000000897258   -0.5100
12     H12    -6.4837   -1.1348   -1.5914 H        1 ZINC000000897258    0.4200
13     H13    -4.8838   -1.0327   -1.9718 H        1 ZINC000000897258    0.4300
14     C14    -6.0359   -1.8197   -3.4608 C.3      1 ZINC000000897258   -0.0500
15     C15    -6.2834   -0.4711   -4.1397 C.3      1 ZINC000000897258    0.1600
16     H16    -7.0558    0.0730   -3.5962 H        1 ZINC000000897258    0.1100
17     O17    -5.0746    0.2910   -4.1399 O.3      1 ZINC000000897258   -0.5600
18     C18    -6.7339   -0.6987   -5.5597 C.ar     1 ZINC000000897258   -0.2800
19     C19    -5.8036   -0.9893   -6.5400 C.ar     1 ZINC000000897258   -0.0600
20     C20    -6.2111   -1.1992   -7.8447 C.ar     1 ZINC000000897258   -0.2600
21     C21    -7.5544   -1.1185   -8.1725 C.ar     1 ZINC000000897258    0.2700
22     O22    -7.9566   -1.3250   -9.4549 O.3      1 ZINC000000897258   -0.7100
23     C23    -8.4926   -0.8256   -7.1849 C.ar     1 ZINC000000897258   -0.0200
24     N24    -9.8530   -0.7430   -7.5106 N.am     1 ZINC000000897258   -0.6400
25     C25   -10.6853   -0.0080   -6.7469 C.2      1 ZINC000000897258    0.4800
26     O26   -10.2422    0.6603   -5.8368 O.2      1 ZINC000000897258   -0.5700
27     C27    -8.0771   -0.6219   -5.8776 C.ar     1 ZINC000000897258   -0.0600
28     C28    -2.5159   -2.7141    0.0398 C.ar     1 ZINC000000897258   -0.0600
29     C29    -1.2895   -2.0782    0.0326 C.ar     1 ZINC000000897258   -0.1400
30     H30     0.9887    1.7371    0.0477 H        1 ZINC000000897258    0.1100
31     H31    -0.5579    1.7298   -0.8334 H        1 ZINC000000897258    0.0600
32     H32    -0.5476    1.7166    0.9465 H        1 ZINC000000897258    0.0600
33     H33    -2.3538    1.1307    0.0530 H        1 ZINC000000897258    0.1400
34     H34    -4.5348   -0.0103    0.0559 H        1 ZINC000000897258    0.1300
35     H35    -4.9273   -3.6254    0.5597 H        1 ZINC000000897258    0.1200
36     H36    -5.7496   -2.0468    0.5676 H        1 ZINC000000897258    0.0900
37     H37    -7.0956   -3.8783   -2.4192 H        1 ZINC000000897258    0.0900
38     H38    -6.5934   -4.6745   -0.9085 H        1 ZINC000000897258    0.1000
39     H39    -7.5421   -3.1696   -0.8487 H        1 ZINC000000897258    0.0800
40     H40    -5.2034   -2.3254   -3.9499 H        1 ZINC000000897258    0.1300
41     H41    -6.9318   -2.4357   -3.5391 H        1 ZINC000000897258    0.1400
42     H42    -4.3420   -0.1335   -4.6071 H        1 ZINC000000897258    0.3800
43     H43    -4.7557   -1.0523   -6.2863 H        1 ZINC000000897258    0.0900
44     H44    -5.4816   -1.4257   -8.6082 H        1 ZINC000000897258    0.1000
45     H45   -10.1956   -1.2150   -8.2857 H        1 ZINC000000897258    0.4100
46     H46   -11.7470   -0.0139   -6.9452 H        1 ZINC000000897258    0.1300
47     H47    -8.8018   -0.3951   -5.1096 H        1 ZINC000000897258    0.1200
48     H48    -2.5643   -3.7930    0.0362 H        1 ZINC000000897258    0.1400
49     H49    -0.3793   -2.6595    0.0271 H        1 ZINC000000897258    0.1400
@<TRIPOS>BOND
1     1     2     1
2     1     30    1
3     1     31    1
4     1     32    1
5     2     3     1
6     3     29    ar
7     3     4     ar
8     4     5     ar
9     4     33    1
10    5     6     ar
11    5     34    1
12    6     7     1
13    6     28    ar
14    7     8     1
15    7     35    1
16    7     36    1
17    8     9     1
18    8     10    1
19    8     11    1
20    10    37    1
21    10    38    1
22    10    39    1
23    11    12    1
24    11    13    1
25    11    14    1
26    14    15    1
27    14    40    1
28    14    41    1
29    15    16    1
30    15    17    1
31    15    18    1
32    17    42    1
33    18    27    ar
34    18    19    ar
35    19    20    ar
36    19    43    1
37    20    21    ar
38    20    44    1
39    21    22    1
40    21    23    ar
41    23    24    1
42    23    27    ar
43    24    25    am
44    24    45    1
45    25    26    2
46    25    46    1
47    27    47    1
48    28    29    ar
49    28    48    1
50    29    49    1
@<TRIPOS>SUBSTRUCTURE
1   ZINC000000897258 1     RESIDUE    1   A     ZIN   1
