@<TRIPOS>MOLECULE
ZINC000000967521
27   28    0    0    0
SMALL
USER_CHARGES
NO_NAME
@<TRIPOS>ATOM
1 C1       -0.0187     1.5258     0.0104 C.3    1 <0>      -0.1400
2 C2        0.0021    -0.0041     0.0020 C.3    1 <0>      -0.0600
3 C3       -1.4027    -0.5894    -0.1557 C.3    1 <0>      -0.1400
4 C4        1.0045    -0.5751    -1.0631 C.3    1 <0>      -0.0900
5 H5        0.7734    -0.3656    -2.1076 H      1 <0>       0.1100
6 C6        2.3510     0.0036    -0.5293 C.3    1 <0>      -0.1300
7 C7        2.1906    -0.0006     1.0084 C.3    1 <0>      -0.1100
8 C8        0.7491    -0.5910     1.2511 C.3    1 <0>      -0.1200
9 C9        0.1233    -0.2846     2.6133 C.3    1 <0>      -0.1200
10 C10       0.8706    -2.0738     0.8727 C.2    1 <0>       0.3700
11 O11       0.8386    -3.0244     1.6167 O.2    1 <0>      -0.4400
12 C12       1.0183    -2.0794    -0.6517 C.3    1 <0>      -0.1800
13 H13       1.0039     1.9031     0.0027 H      1 <0>       0.0600
14 H14      -0.5459     1.8868    -0.8726 H      1 <0>       0.0600
15 H15      -0.5289     1.8773     0.9072 H      1 <0>       0.0600
16 H16      -1.8402    -0.2375    -1.0900 H      1 <0>       0.0600
17 H17      -1.3435    -1.6777    -0.1694 H      1 <0>       0.0500
18 H18      -2.0253    -0.2699     0.6800 H      1 <0>       0.0600
19 H19       3.1837    -0.6338    -0.8268 H      1 <0>       0.0700
20 H20       2.4995     1.0201    -0.8937 H      1 <0>       0.0800
21 H21       2.9411    -0.6443     1.4672 H      1 <0>       0.0700
22 H22       2.2665     1.0133     1.4013 H      1 <0>       0.0800
23 H23       0.0513     0.7950     2.7455 H      1 <0>       0.0700
24 H24      -0.8730    -0.7239     2.6625 H      1 <0>       0.0600
25 H25       0.7458    -0.7065     3.4022 H      1 <0>       0.0600
26 H26       0.1960    -2.6286    -1.1103 H      1 <0>       0.1000
27 H27       1.9744    -2.5172    -0.9385 H      1 <0>       0.1000
@<TRIPOS>BOND
1    1    2 1
2    1   13 1
3    1   14 1
4    1   15 1
5    2    8 1
6    2    3 1
7    2    4 1
8    3   16 1
9    3   17 1
10    3   18 1
11    4    5 1
12    4   12 1
13    4    6 1
14    6    7 1
15    6   19 1
16    6   20 1
17    7    8 1
18    7   21 1
19    7   22 1
20    8    9 1
21    8   10 1
22    9   23 1
23    9   24 1
24    9   25 1
25   10   11 2
26   10   12 1
27   12   26 1
28   12   27 1
