@<TRIPOS>MOLECULE
ZINC000000113428
32    34    1     0     0
SMALL
USER_CHARGES
@<TRIPOS>ATOM
1      C1     -0.0166    1.3756    0.0096 C.ar     1 ZINC000000113428   -0.1000
2      C2      1.1736    2.0782    0.0020 C.ar     1 ZINC000000113428   -0.1100
3      C3      2.3723    1.3951   -0.0161 C.ar     1 ZINC000000113428   -0.1300
4      C4      2.3932    0.0066   -0.0252 C.ar     1 ZINC000000113428   -0.1100
5      C5      1.2075   -0.6934   -0.0125 C.ar     1 ZINC000000113428   -0.0500
6      C6      0.0021   -0.0041    0.0020 C.ar     1 ZINC000000113428   -0.1100
7      C7      1.1549   -2.1988   -0.0053 C.3      1 ZINC000000113428   -0.0900
8      C8      2.4927   -2.7852   -0.4517 C.3      1 ZINC000000113428   -0.1200
9      C9      3.6069   -2.1346    0.3764 C.3      1 ZINC000000113428   -0.1200
10     C10     3.7364   -0.6745   -0.0529 C.3      1 ZINC000000113428   -0.0200
11     H11     4.1404   -0.6318   -1.0644 H        1 ZINC000000113428    0.1400
12     C12     4.6740    0.0386    0.8871 C.cat    1 ZINC000000113428    0.5200
13     N13     4.8829   -0.3686    2.1170 N.pl3    1 ZINC000000113428   -0.6300
14     H14     4.4692   -1.1427    2.5300 H        1 ZINC000000113428    0.4600
15     C15     5.8443    0.5338    2.7709 C.3      1 ZINC000000113428    0.0600
16     C16     6.1641    1.5655    1.6692 C.3      1 ZINC000000113428    0.0600
17     N17     5.3457    1.1093    0.5341 N.pl3    1 ZINC000000113428   -0.6400
18     H18    -0.9580    1.9046    0.0259 H        1 ZINC000000113428    0.1300
19     H19     1.1654    3.1581    0.0099 H        1 ZINC000000113428    0.1300
20     H20     3.3019    1.9448   -0.0236 H        1 ZINC000000113428    0.1100
21     H21    -0.9284   -0.5523    0.0071 H        1 ZINC000000113428    0.1300
22     H22     0.9290   -2.5457    1.0030 H        1 ZINC000000113428    0.0900
23     H23     0.3710   -2.5343   -0.6842 H        1 ZINC000000113428    0.0900
24     H24     2.4944   -3.8627   -0.2869 H        1 ZINC000000113428    0.0900
25     H25     2.6509   -2.5749   -1.5094 H        1 ZINC000000113428    0.0800
26     H26     3.3542   -2.1847    1.4355 H        1 ZINC000000113428    0.0800
27     H27     4.5482   -2.6545    0.1981 H        1 ZINC000000113428    0.0900
28     H28     5.3897    1.0206    3.6337 H        1 ZINC000000113428    0.1300
29     H29     6.7436   -0.0084    3.0631 H        1 ZINC000000113428    0.1300
30     H30     5.8690    2.5670    1.9825 H        1 ZINC000000113428    0.1300
31     H31     7.2229    1.5380    1.4119 H        1 ZINC000000113428    0.1300
32     H32     5.3055    1.5358   -0.3362 H        1 ZINC000000113428    0.4600
@<TRIPOS>BOND
1     1     6     ar
2     1     2     ar
3     1     18    1
4     2     3     ar
5     2     19    1
6     3     4     ar
7     3     20    1
8     4     10    1
9     4     5     ar
10    5     6     ar
11    5     7     1
12    6     21    1
13    7     8     1
14    7     22    1
15    7     23    1
16    8     9     1
17    8     24    1
18    8     25    1
19    9     10    1
20    9     26    1
21    9     27    1
22    10    11    1
23    10    12    1
24    12    17    ar
25    12    13    ar
26    13    14    1
27    13    15    1
28    15    16    1
29    15    28    1
30    15    29    1
31    16    17    1
32    16    30    1
33    16    31    1
34    17    32    1
@<TRIPOS>SUBSTRUCTURE
1   ZINC000000113428 1     RESIDUE    1   A     ZIN   1
