@<TRIPOS>MOLECULE
ZINC000000000471
31    32    1     0     0
SMALL
USER_CHARGES
@<TRIPOS>ATOM
1      C1     -0.0184    1.5028    0.0103 C.3      1 ZINC000000000471   -0.1200
2      C2      0.0021   -0.0041    0.0020 C.ar     1 ZINC000000000471   -0.0400
3      C3      0.0058   -0.6876   -1.1984 C.ar     1 ZINC000000000471   -0.1600
4      C4      0.0251   -2.0748   -1.2054 C.ar     1 ZINC000000000471    0.1400
5      O5      0.0292   -2.7495   -2.3851 O.3      1 ZINC000000000471   -0.3000
6      C6      0.0494   -4.1767   -2.3160 C.3      1 ZINC000000000471    0.0500
7      C7      0.0511   -4.7558   -3.7322 C.3      1 ZINC000000000471    0.0700
8      H8      0.8721   -4.3370   -4.3142 H        1 ZINC000000000471    0.1300
9      C9      0.1500   -6.2929   -3.6871 C.3      1 ZINC000000000471    0.0700
10     N10    -1.0942   -6.7429   -4.3299 N.am     1 ZINC000000000471   -0.7400
11     C11    -1.8077   -5.6685   -4.6935 C.2      1 ZINC000000000471    0.6400
12     O12    -2.8859   -5.7453   -5.2485 O.2      1 ZINC000000000471   -0.5200
13     O13    -1.2236   -4.5005   -4.3900 O.3      1 ZINC000000000471   -0.3100
14     C14     0.0406   -2.7720   -0.0061 C.ar     1 ZINC000000000471   -0.2200
15     C15     0.0368   -2.0838    1.1917 C.ar     1 ZINC000000000471   -0.0400
16     C16     0.0541   -2.8405    2.4948 C.3      1 ZINC000000000471   -0.1200
17     C17     0.0229   -0.7012    1.1959 C.ar     1 ZINC000000000471   -0.1600
18     H18     1.0042    1.8801    0.0026 H        1 ZINC000000000471    0.0700
19     H19    -0.5455    1.8639   -0.8728 H        1 ZINC000000000471    0.0700
20     H20    -0.5286    1.8543    0.9071 H        1 ZINC000000000471    0.0700
21     H21    -0.0067   -0.1426   -2.1308 H        1 ZINC000000000471    0.1300
22     H22     0.9463   -4.5024   -1.7892 H        1 ZINC000000000471    0.0900
23     H23    -0.8335   -4.5271   -1.7813 H        1 ZINC000000000471    0.0800
24     H24     1.0178   -6.6374   -4.2495 H        1 ZINC000000000471    0.1100
25     H25     0.1968   -6.6435   -2.6561 H        1 ZINC000000000471    0.1000
26     H26    -1.3554   -7.6668   -4.4684 H        1 ZINC000000000471    0.4400
27     H27     0.0552   -3.8519   -0.0089 H        1 ZINC000000000471    0.1300
28     H28     1.0859   -3.0083    2.8038 H        1 ZINC000000000471    0.0700
29     H29    -0.4642   -2.2607    3.2586 H        1 ZINC000000000471    0.0700
30     H30    -0.4467   -3.7998    2.3646 H        1 ZINC000000000471    0.0700
31     H31     0.0203   -0.1649    2.1334 H        1 ZINC000000000471    0.1200
@<TRIPOS>BOND
1     1     2     1
2     1     18    1
3     1     19    1
4     1     20    1
5     2     17    ar
6     2     3     ar
7     3     4     ar
8     3     21    1
9     4     5     1
10    4     14    ar
11    5     6     1
12    6     7     1
13    6     22    1
14    6     23    1
15    7     8     1
16    7     13    1
17    7     9     1
18    9     10    1
19    9     24    1
20    9     25    1
21    10    11    am
22    10    26    1
23    11    12    2
24    11    13    1
25    14    15    ar
26    14    27    1
27    15    16    1
28    15    17    ar
29    16    28    1
30    16    29    1
31    16    30    1
32    17    31    1
@<TRIPOS>SUBSTRUCTURE
1   ZINC000000000471 1     RESIDUE    1   A     ZIN   1
