@<TRIPOS>MOLECULE
ZINC000004474564
55    54    1     0     0
SMALL
USER_CHARGES
@<TRIPOS>ATOM
1      C1      4.0191   -0.6958   -1.7942 C.3      1 ZINC000004474564   -0.1500
2      C2      3.6297   -2.1330   -2.1457 C.3      1 ZINC000004474564   -0.1100
3      C3      2.3021   -2.4627   -1.5134 C.2      1 ZINC000004474564   -0.1600
4      C4      1.3312   -2.9507   -2.2451 C.2      1 ZINC000004474564   -0.1500
5      C5      1.5885   -3.3343   -3.6796 C.3      1 ZINC000004474564   -0.0800
6      C6      1.1480   -4.7576   -3.9057 C.2      1 ZINC000004474564   -0.1600
7      C7      0.3355   -5.0428   -4.8929 C.2      1 ZINC000004474564   -0.1500
8      C8     -0.0304   -3.9815   -5.8983 C.3      1 ZINC000004474564   -0.0800
9      C9      0.2525   -4.4882   -7.2891 C.2      1 ZINC000004474564   -0.1600
10     C10    -0.6864   -4.4546   -8.2020 C.2      1 ZINC000004474564   -0.1400
11     C11    -1.9901   -3.7546   -7.9167 C.3      1 ZINC000004474564   -0.0800
12     C12    -2.2736   -2.7559   -9.0091 C.2      1 ZINC000004474564   -0.1600
13     C13    -3.4181   -2.7887   -9.6456 C.2      1 ZINC000004474564   -0.1400
14     C14    -4.5125   -3.7147   -9.1810 C.3      1 ZINC000004474564   -0.0900
15     C15    -5.7876   -2.9329   -8.9967 C.2      1 ZINC000004474564   -0.1700
16     C16    -6.8722   -3.2878   -9.6399 C.2      1 ZINC000004474564   -0.1300
17     C17    -6.8050   -4.3609  -10.6959 C.3      1 ZINC000004474564   -0.0900
18     C18    -7.7010   -5.5076  -10.3046 C.2      1 ZINC000004474564   -0.1800
19     C19    -8.5945   -5.9587  -11.1498 C.2      1 ZINC000004474564   -0.1400
20     C20    -8.6197   -5.4437  -12.5658 C.3      1 ZINC000004474564   -0.0800
21     C21    -8.5669   -6.6235  -13.5386 C.3      1 ZINC000004474564   -0.1800
22     C22    -8.5922   -6.1085  -14.9547 C.2      1 ZINC000004474564    0.4900
23     O23    -8.6472   -4.9090  -15.1662 O.co2    1 ZINC000004474564   -0.7000
24     O24    -8.5575   -6.8913  -15.8887 O.co2    1 ZINC000004474564   -0.7100
25     H25     4.9794   -0.4573   -2.2516 H        1 ZINC000004474564    0.0600
26     H26     3.2582   -0.0112   -2.1689 H        1 ZINC000004474564    0.0500
27     H27     4.0973   -0.5949   -0.7117 H        1 ZINC000004474564    0.0500
28     H28     3.5516   -2.2339   -3.2282 H        1 ZINC000004474564    0.0800
29     H29     4.3906   -2.8176   -1.7710 H        1 ZINC000004474564    0.0700
30     H30     2.1511   -2.2967   -0.4570 H        1 ZINC000004474564    0.1100
31     H31     0.3465   -3.0781   -1.8203 H        1 ZINC000004474564    0.1100
32     H32     1.0282   -2.6714   -4.3390 H        1 ZINC000004474564    0.0800
33     H33     2.6534   -3.2450   -3.8942 H        1 ZINC000004474564    0.0800
34     H34     1.5022   -5.5425   -3.2539 H        1 ZINC000004474564    0.1100
35     H35    -0.0722   -6.0386   -4.9863 H        1 ZINC000004474564    0.1100
36     H36    -1.0903   -3.7442   -5.8067 H        1 ZINC000004474564    0.0800
37     H37     0.5602   -3.0847   -5.7112 H        1 ZINC000004474564    0.0800
38     H38     1.2293   -4.8790   -7.5332 H        1 ZINC000004474564    0.1100
39     H39    -0.5261   -4.9285   -9.1592 H        1 ZINC000004474564    0.1100
40     H40    -2.7953   -4.4882   -7.8772 H        1 ZINC000004474564    0.0900
41     H41    -1.9228   -3.2371   -6.9598 H        1 ZINC000004474564    0.0800
42     H42    -1.5332   -2.0132   -9.2672 H        1 ZINC000004474564    0.1100
43     H43    -3.5775   -2.1520  -10.5033 H        1 ZINC000004474564    0.1100
44     H44    -4.6690   -4.4948   -9.9260 H        1 ZINC000004474564    0.0900
45     H45    -4.2252   -4.1699   -8.2332 H        1 ZINC000004474564    0.0800
46     H46    -5.8072   -2.0801   -8.3344 H        1 ZINC000004474564    0.1100
47     H47    -7.8146   -2.8114   -9.4134 H        1 ZINC000004474564    0.1100
48     H48    -7.1345   -3.9518  -11.6510 H        1 ZINC000004474564    0.1000
49     H49    -5.7788   -4.7166  -10.7876 H        1 ZINC000004474564    0.0800
50     H50    -7.6066   -5.9575   -9.3273 H        1 ZINC000004474564    0.1000
51     H51    -9.3129   -6.6997  -10.8318 H        1 ZINC000004474564    0.1000
52     H52    -9.5366   -4.8778  -12.7304 H        1 ZINC000004474564    0.0700
53     H53    -7.7585   -4.7966  -12.7325 H        1 ZINC000004474564    0.0700
54     H54    -7.6500   -7.1893  -13.3741 H        1 ZINC000004474564    0.0600
55     H55    -9.4281   -7.2706  -13.3719 H        1 ZINC000004474564    0.0600
@<TRIPOS>BOND
1     1     2     1
2     1     25    1
3     1     26    1
4     1     27    1
5     2     3     1
6     2     28    1
7     2     29    1
8     3     4     2
9     3     30    1
10    4     5     1
11    4     31    1
12    5     6     1
13    5     32    1
14    5     33    1
15    6     7     2
16    6     34    1
17    7     8     1
18    7     35    1
19    8     9     1
20    8     36    1
21    8     37    1
22    9     10    2
23    9     38    1
24    10    11    1
25    10    39    1
26    11    12    1
27    11    40    1
28    11    41    1
29    12    13    2
30    12    42    1
31    13    14    1
32    13    43    1
33    14    15    1
34    14    44    1
35    14    45    1
36    15    16    2
37    15    46    1
38    16    17    1
39    16    47    1
40    17    18    1
41    17    48    1
42    17    49    1
43    18    19    2
44    18    50    1
45    19    20    1
46    19    51    1
47    20    21    1
48    20    52    1
49    20    53    1
50    21    22    1
51    21    54    1
52    21    55    1
53    22    23    ar
54    22    24    ar
@<TRIPOS>SUBSTRUCTURE
1   ZINC000004474564 1     RESIDUE    1   A     ZIN   1
