@<TRIPOS>MOLECULE
ZINC000019796155
43   46    0    0    0
SMALL
USER_CHARGES
NO_NAME
@<TRIPOS>ATOM
1 C1       -2.8010    -1.2346     0.4253 C.3    1 <0>      -0.0500
2 N2       -1.3511    -1.3165     0.2039 N.4    1 <0>      -0.3900
3 H3       -0.9880    -0.3938     0.0171 H      1 <0>       0.4300
4 C4       -1.0819    -2.1886    -0.9463 C.3    1 <0>      -0.0200
5 C5        0.4201    -2.1839    -1.2492 C.3    1 <0>       0.0900
6 N6        1.1441    -2.5548    -0.0235 N.pl3  1 <0>      -0.6200
7 C7        2.1011    -3.5438    -0.0386 C.2    1 <0>       0.5000
8 N8        2.5847    -3.9015     1.0974 N.2    1 <0>      -0.5800
9 C9        3.5486    -4.8324     1.3411 C.ar   1 <0>       0.1400
10 C10       4.5187    -4.5673     2.3111 C.ar   1 <0>      -0.0900
11 C11       5.4832    -5.5127     2.6056 C.ar   1 <0>      -0.0300
12 Cl12      6.6862    -5.1744     3.8107 Cl     1 <0>      -0.0600
13 C13       5.4932    -6.7270     1.9444 C.ar   1 <0>      -0.1000
14 C14       4.5465    -6.9949     0.9693 C.ar   1 <0>      -0.1000
15 C15       3.5867    -6.0492     0.6525 C.ar   1 <0>       0.1200
16 N16       2.6936    -6.3041    -0.4015 N.pl3  1 <0>      -0.7300
17 C17       2.7120    -5.4595    -1.5133 C.ar   1 <0>       0.2200
18 C18       2.9737    -5.9724    -2.7733 C.ar   1 <0>      -0.1400
19 C19       3.0249    -5.1274    -3.8674 C.ar   1 <0>      -0.0700
20 C20       2.8183    -3.7687    -3.7089 C.ar   1 <0>      -0.1400
21 C21       2.5428    -3.2455    -2.4614 C.ar   1 <0>      -0.0800
22 C22       2.4675    -4.0934    -1.3519 C.ar   1 <0>      -0.1600
23 C23       0.8165    -1.8382     1.2189 C.3    1 <0>       0.1000
24 C24      -0.7044    -1.8612     1.4044 C.3    1 <0>      -0.0200
25 H25      -3.1946    -2.2308     0.6273 H      1 <0>       0.1200
26 H26      -3.0024    -0.5849     1.2770 H      1 <0>       0.1300
27 H27      -3.2819    -0.8274    -0.4640 H      1 <0>       0.1300
28 H28      -1.4029    -3.2043    -0.7153 H      1 <0>       0.1300
29 H29      -1.6291    -1.8232    -1.8154 H      1 <0>       0.1400
30 H30       0.6374    -2.9065    -2.0358 H      1 <0>       0.1400
31 H31       0.7263    -1.1876    -1.5682 H      1 <0>       0.1000
32 H32       4.5148    -3.6214     2.8323 H      1 <0>       0.1400
33 H33       6.2405    -7.4677     2.1883 H      1 <0>       0.1400
34 H34       4.5571    -7.9445     0.4550 H      1 <0>       0.1400
35 H35       2.0765    -7.0513    -0.3577 H      1 <0>       0.4100
36 H36       3.1381    -7.0321    -2.9014 H      1 <0>       0.1400
37 H37       3.2272    -5.5299    -4.8490 H      1 <0>       0.1400
38 H38       2.8726    -3.1137    -4.5659 H      1 <0>       0.1400
39 H39       2.3829    -2.1838    -2.3444 H      1 <0>       0.1300
40 H40       1.2960    -2.3322     2.0640 H      1 <0>       0.1400
41 H41       1.1628    -0.8070     1.1491 H      1 <0>       0.0900
42 H42      -0.9745    -1.2534     2.2679 H      1 <0>       0.1400
43 H43      -1.0356    -2.8873     1.5642 H      1 <0>       0.1300
@<TRIPOS>BOND
1    1    2 1
2    1   25 1
3    1   26 1
4    1   27 1
5    2    3 1
6    2   24 1
7    2    4 1
8    4    5 1
9    4   28 1
10    4   29 1
11    5    6 1
12    5   30 1
13    5   31 1
14    6    7 1
15    6   23 1
16    7   22 1
17    7    8 2
18    8    9 1
19    9   15 ar
20    9   10 ar
21   10   11 ar
22   10   32 1
23   11   12 1
24   11   13 ar
25   13   14 ar
26   13   33 1
27   14   15 ar
28   14   34 1
29   15   16 1
30   16   17 1
31   16   35 1
32   17   22 ar
33   17   18 ar
34   18   19 ar
35   18   36 1
36   19   20 ar
37   19   37 1
38   20   21 ar
39   20   38 1
40   21   22 ar
41   21   39 1
42   23   24 1
43   23   40 1
44   23   41 1
45   24   42 1
46   24   43 1
