@<TRIPOS>MOLECULE
ZINC000000592419
40    42    1     0     0
SMALL
USER_CHARGES
@<TRIPOS>ATOM
1      O1      0.6175    1.3783    2.0950 O.2      1 ZINC000000592419   -0.5100
2      C2      0.3324    1.9758    1.0751 C.2      1 ZINC000000592419    0.5800
3      N3      1.1435    1.9014    0.0014 N.am     1 ZINC000000592419   -0.6800
4      C4      2.3601    1.2235    0.0914 C.ar     1 ZINC000000592419    0.2000
5      C5      3.5182    1.8832    0.5024 C.ar     1 ZINC000000592419   -0.0800
6      Cl6     3.4720    3.5694    0.9128 Cl       1 ZINC000000592419   -0.0300
7      C7      4.7017    1.1762    0.5787 C.ar     1 ZINC000000592419    0.1300
8      N8      4.7451   -0.1058    0.2690 N.ar     1 ZINC000000592419   -0.4500
9      C9      3.6718   -0.7654   -0.1239 C.ar     1 ZINC000000592419    0.1300
10     C10     2.4485   -0.1328   -0.2216 C.ar     1 ZINC000000592419   -0.0700
11     Cl11    1.0428   -1.0099   -0.7395 Cl       1 ZINC000000592419   -0.0300
12     C12    -0.9050    2.7774    1.0111 C.ar     1 ZINC000000592419   -0.1200
13     C13    -1.2370    3.4597   -0.1617 C.ar     1 ZINC000000592419   -0.0800
14     C14    -2.3929    4.2080   -0.2199 C.ar     1 ZINC000000592419   -0.1600
15     C15    -3.2295    4.2858    0.8849 C.ar     1 ZINC000000592419    0.1100
16     O16    -4.3673    5.0244    0.8225 O.3      1 ZINC000000592419   -0.3000
17     C17    -4.6395    5.6936   -0.4104 C.3      1 ZINC000000592419    0.4100
18     F18    -3.5982    6.5824   -0.6984 F        1 ZINC000000592419   -0.2000
19     F19    -4.7463    4.7513   -1.4388 F        1 ZINC000000592419   -0.2000
20     C20    -2.9043    3.6068    2.0587 C.ar     1 ZINC000000592419    0.1200
21     O21    -3.7264    3.6846    3.1393 O.3      1 ZINC000000592419   -0.3000
22     C22    -3.3313    2.9637    4.3082 C.3      1 ZINC000000592419    0.0900
23     C23    -4.3721    3.1699    5.4106 C.3      1 ZINC000000592419   -0.1600
24     C24    -5.1417    1.9393    5.8946 C.3      1 ZINC000000592419   -0.1700
25     C25    -4.0716    2.5721    6.7865 C.3      1 ZINC000000592419   -0.1700
26     C26    -1.7503    2.8509    2.1220 C.ar     1 ZINC000000592419   -0.1200
27     H27     0.8817    2.3190   -0.8341 H        1 ZINC000000592419    0.4200
28     H28     5.6034    1.6790    0.8956 H        1 ZINC000000592419    0.1800
29     H29     3.7506   -1.8144   -0.3686 H        1 ZINC000000592419    0.1800
30     H30    -0.5876    3.4012   -1.0227 H        1 ZINC000000592419    0.1400
31     H31    -2.6482    4.7354   -1.1272 H        1 ZINC000000592419    0.1500
32     H32    -5.5754    6.2459   -0.3251 H        1 ZINC000000592419    0.1900
33     H33    -3.2571    1.9021    4.0726 H        1 ZINC000000592419    0.0700
34     H34    -2.3628    3.3286    4.6501 H        1 ZINC000000592419    0.0700
35     H35    -4.9074    4.1189    5.3802 H        1 ZINC000000592419    0.1200
36     H36    -6.1837    2.0786    6.1826 H        1 ZINC000000592419    0.1000
37     H37    -4.9066    0.9829    5.4277 H        1 ZINC000000592419    0.1000
38     H38    -3.1325    2.0319    6.9064 H        1 ZINC000000592419    0.1000
39     H39    -4.4097    3.1276    7.6613 H        1 ZINC000000592419    0.1000
40     H40    -1.4972    2.3245    3.0304 H        1 ZINC000000592419    0.1500
@<TRIPOS>BOND
1     1     2     2
2     2     3     am
3     2     12    1
4     3     4     1
5     3     27    1
6     4     10    ar
7     4     5     ar
8     5     6     1
9     5     7     ar
10    7     8     ar
11    7     28    1
12    8     9     ar
13    9     10    ar
14    9     29    1
15    10    11    1
16    12    26    ar
17    12    13    ar
18    13    14    ar
19    13    30    1
20    14    15    ar
21    14    31    1
22    15    16    1
23    15    20    ar
24    16    17    1
25    17    18    1
26    17    19    1
27    17    32    1
28    20    21    1
29    20    26    ar
30    21    22    1
31    22    23    1
32    22    33    1
33    22    34    1
34    23    25    1
35    23    24    1
36    23    35    1
37    24    25    1
38    24    36    1
39    24    37    1
40    25    38    1
41    25    39    1
42    26    40    1
@<TRIPOS>SUBSTRUCTURE
1   ZINC000000592419 1     RESIDUE    1   A     ZIN   1
