@<TRIPOS>MOLECULE
ZINC000001530570
55    55    1     0     0
SMALL
USER_CHARGES
@<TRIPOS>ATOM
1      C1     -0.0187    1.5258    0.0104 C.3      1 ZINC000001530570   -0.1900
2      C2      0.0021   -0.0041    0.0020 C.3      1 ZINC000001530570    0.0200
3      C3      0.7421   -0.5109    1.2415 C.3      1 ZINC000001530570   -0.1900
4      N4     -1.3761   -0.5125    0.0124 N.4      1 ZINC000001530570   -0.5000
5      H5     -1.8225   -0.2564    0.8803 H        1 ZINC000001530570    0.4300
6      H6     -1.8879   -0.1129   -0.7598 H        1 ZINC000001530570    0.4300
7      C7     -1.3591   -1.9758   -0.1163 C.3      1 ZINC000001530570   -0.0500
8      C8     -2.7945   -2.5054   -0.1054 C.3      1 ZINC000001530570    0.0900
9      H9     -3.3047   -2.1538    0.7914 H        1 ZINC000001530570    0.1300
10     O10    -3.4857   -2.0320   -1.2631 O.3      1 ZINC000001530570   -0.5400
11     C11    -2.7738   -4.0352   -0.1139 C.3      1 ZINC000001530570    0.0300
12     O12    -4.1082   -4.5304    0.0137 O.3      1 ZINC000001530570   -0.3000
13     C13    -4.2671   -5.8800    0.0234 C.ar     1 ZINC000001530570    0.1200
14     C14    -3.1609   -6.7107   -0.0816 C.ar     1 ZINC000001530570   -0.2100
15     C15    -3.3251   -8.0823   -0.0710 C.ar     1 ZINC000001530570   -0.0600
16     C16    -4.5906   -8.6274    0.0439 C.ar     1 ZINC000001530570   -0.1100
17     C17    -4.7668  -10.1240    0.0547 C.3      1 ZINC000001530570    0.1000
18     O18    -4.6987  -10.6019    1.3997 O.3      1 ZINC000001530570   -0.3700
19     C19    -4.8550  -12.0170    1.5224 C.3      1 ZINC000001530570    0.0600
20     C20    -4.7653  -12.4141    2.9972 C.3      1 ZINC000001530570    0.0600
21     O21    -5.8670  -11.8489    3.7106 O.3      1 ZINC000001530570   -0.3800
22     C22    -5.8780  -12.1610    5.1050 C.3      1 ZINC000001530570    0.0800
23     C23    -5.1005  -11.0905    5.8734 C.3      1 ZINC000001530570   -0.1700
24     C24    -7.3227  -12.2009    5.6072 C.3      1 ZINC000001530570   -0.1500
25     C25    -5.6946   -7.8017    0.1492 C.ar     1 ZINC000001530570   -0.0500
26     C26    -5.5352   -6.4295    0.1443 C.ar     1 ZINC000001530570   -0.1500
27     H27     1.0039    1.9031    0.0027 H        1 ZINC000001530570    0.1100
28     H28    -0.5459    1.8868   -0.8726 H        1 ZINC000001530570    0.0800
29     H29    -0.5289    1.8773    0.9072 H        1 ZINC000001530570    0.0800
30     H30     0.5123   -0.3556   -0.8948 H        1 ZINC000001530570    0.1400
31     H31     0.2319   -0.1594    2.1383 H        1 ZINC000001530570    0.0800
32     H32     0.7568   -1.6008    1.2356 H        1 ZINC000001530570    0.0800
33     H33     1.7647   -0.1336    1.2338 H        1 ZINC000001530570    0.1100
34     H34    -0.8769   -2.2525   -1.0538 H        1 ZINC000001530570    0.1400
35     H35    -0.8062   -2.4075    0.7180 H        1 ZINC000001530570    0.1500
36     H36    -3.0863   -2.3073   -2.0996 H        1 ZINC000001530570    0.3900
37     H37    -2.3435   -4.3876   -1.0513 H        1 ZINC000001530570    0.0800
38     H38    -2.1714   -4.3950    0.7203 H        1 ZINC000001530570    0.0800
39     H39    -2.1723   -6.2854   -0.1720 H        1 ZINC000001530570    0.1200
40     H40    -2.4643   -8.7294   -0.1527 H        1 ZINC000001530570    0.1300
41     H41    -5.7366  -10.3788   -0.3727 H        1 ZINC000001530570    0.0600
42     H42    -3.9764  -10.5872   -0.5359 H        1 ZINC000001530570    0.0600
43     H43    -5.8266  -12.3111    1.1254 H        1 ZINC000001530570    0.0600
44     H44    -4.0664  -12.5195    0.9622 H        1 ZINC000001530570    0.0700
45     H45    -4.7953  -13.5003    3.0835 H        1 ZINC000001530570    0.0700
46     H46    -3.8309  -12.0420    3.4175 H        1 ZINC000001530570    0.0600
47     H47    -5.4113  -13.1331    5.2635 H        1 ZINC000001530570    0.0600
48     H48    -5.5673  -10.1183    5.7149 H        1 ZINC000001530570    0.0600
49     H49    -5.1089  -11.3285    6.9370 H        1 ZINC000001530570    0.0700
50     H50    -4.0712  -11.0620    5.5156 H        1 ZINC000001530570    0.0500
51     H51    -7.8767  -12.9636    5.0598 H        1 ZINC000001530570    0.0600
52     H52    -7.3312  -12.4390    6.6709 H        1 ZINC000001530570    0.0700
53     H53    -7.7895  -11.2288    5.4487 H        1 ZINC000001530570    0.0600
54     H54    -6.6820   -8.2299    0.2391 H        1 ZINC000001530570    0.1400
55     H55    -6.3979   -5.7849    0.2266 H        1 ZINC000001530570    0.1400
@<TRIPOS>BOND
1     1     2     1
2     1     27    1
3     1     28    1
4     1     29    1
5     2     3     1
6     2     4     1
7     2     30    1
8     3     31    1
9     3     32    1
10    3     33    1
11    4     5     1
12    4     6     1
13    4     7     1
14    7     8     1
15    7     34    1
16    7     35    1
17    8     9     1
18    8     10    1
19    8     11    1
20    10    36    1
21    11    12    1
22    11    37    1
23    11    38    1
24    12    13    1
25    13    26    ar
26    13    14    ar
27    14    15    ar
28    14    39    1
29    15    16    ar
30    15    40    1
31    16    17    1
32    16    25    ar
33    17    18    1
34    17    41    1
35    17    42    1
36    18    19    1
37    19    20    1
38    19    43    1
39    19    44    1
40    20    21    1
41    20    45    1
42    20    46    1
43    21    22    1
44    22    23    1
45    22    24    1
46    22    47    1
47    23    48    1
48    23    49    1
49    23    50    1
50    24    51    1
51    24    52    1
52    24    53    1
53    25    26    ar
54    25    54    1
55    26    55    1
@<TRIPOS>SUBSTRUCTURE
1   ZINC000001530570 1     RESIDUE    1   A     ZIN   1
