@<TRIPOS>MOLECULE
ZINC000000537931
50   53    0    0    0
SMALL
USER_CHARGES
NO_NAME
@<TRIPOS>ATOM
1 C1       -0.0187     1.5258     0.0104 C.3    1 <0>      -0.1500
2 C2        0.0021    -0.0041     0.0020 C.3    1 <0>       0.0800
3 O3        0.6817    -0.4723    -1.1926 O.3    1 <0>      -0.3700
4 C4        0.7865    -1.8049    -1.3536 C.2    1 <0>       0.6500
5 O5        0.3228    -2.5561    -0.5186 O.2    1 <0>      -0.5700
6 N6        1.4059    -2.3058    -2.4408 N.am   1 <0>      -0.5900
7 C7        1.9747    -1.4056    -3.4521 C.3    1 <0>       0.1100
8 C8        3.4704    -1.7118    -3.6004 C.3    1 <0>      -0.1000
9 C9        3.6377    -3.2052    -3.7755 C.2    1 <0>      -0.0500
10 C10       4.3302    -3.7011    -4.8082 C.2    1 <0>      -0.0600
11 C11       4.4676    -5.1680    -4.9501 C.ar   1 <0>      -0.0300
12 C12       5.1153    -5.9321    -3.9839 C.ar   1 <0>      -0.0900
13 C13       5.2068    -7.3004    -4.1623 C.ar   1 <0>      -0.1100
14 C14       4.6575    -7.8889    -5.2885 C.ar   1 <0>      -0.0300
15 Cl15      4.7713    -9.6079    -5.5026 Cl     1 <0>      -0.0700
16 C16       4.0176    -7.1192    -6.2459 C.ar   1 <0>      -0.1000
17 C17       3.9285    -5.7479    -6.0725 C.ar   1 <0>      -0.0600
18 C18       3.2606    -4.9016    -7.1121 C.3    1 <0>      -0.0800
19 C19       4.2300    -4.0744    -7.9124 C.3    1 <0>      -0.0700
20 C20       4.9109    -2.9700    -7.1490 C.ar   1 <0>      -0.1100
21 C21       5.5859    -2.0442    -7.9555 C.ar   1 <0>      -0.0800
22 C22       6.2341    -0.9712    -7.3766 C.ar   1 <0>      -0.1700
23 C23       6.2010    -0.8272    -6.0016 C.ar   1 <0>       0.1000
24 N24       5.5690    -1.7092    -5.2637 N.ar   1 <0>      -0.4700
25 C25       4.9365    -2.7712    -5.7859 C.ar   1 <0>       0.1700
26 C26       3.0037    -4.1246    -2.7549 C.3    1 <0>      -0.1100
27 C27       1.5249    -3.7579    -2.6248 C.3    1 <0>       0.1300
28 H28       1.0039     1.9031     0.0027 H      1 <0>       0.0700
29 H29      -0.5459     1.8868    -0.8726 H      1 <0>       0.0700
30 H30      -0.5289     1.8773     0.9072 H      1 <0>       0.0800
31 H31       0.5293    -0.3651     0.8851 H      1 <0>       0.0700
32 H32      -1.0205    -0.3814     0.0098 H      1 <0>       0.0700
33 H33       1.4728    -1.5646    -4.4066 H      1 <0>       0.0700
34 H34       1.8431    -0.3708    -3.1357 H      1 <0>       0.1000
35 H35       3.8664    -1.1933    -4.4736 H      1 <0>       0.1000
36 H36       4.0022    -1.3852    -2.7067 H      1 <0>       0.0900
37 H37       5.5401    -5.4636    -3.1084 H      1 <0>       0.1400
38 H38       5.7062    -7.9095    -3.4234 H      1 <0>       0.1400
39 H39       3.5913    -7.5851    -7.1220 H      1 <0>       0.1400
40 H40       2.7097    -5.5514    -7.7920 H      1 <0>       0.0800
41 H41       2.5538    -4.2340    -6.6193 H      1 <0>       0.0800
42 H42       4.9966    -4.7372    -8.3140 H      1 <0>       0.0800
43 H43       3.6924    -3.6313    -8.7507 H      1 <0>       0.0900
44 H44       5.5994    -2.1698    -9.0281 H      1 <0>       0.1300
45 H45       6.7596    -0.2538    -7.9894 H      1 <0>       0.1400
46 H46       6.6953     0.0119    -5.5348 H      1 <0>       0.1600
47 H47       3.0991    -5.1594    -3.0837 H      1 <0>       0.0900
48 H48       3.4967    -3.9984    -1.7910 H      1 <0>       0.0900
49 H49       1.0951    -4.2724    -1.7654 H      1 <0>       0.1000
50 H50       0.9948    -4.0504    -3.5311 H      1 <0>       0.0700
@<TRIPOS>BOND
1    1    2 1
2    1   28 1
3    1   29 1
4    1   30 1
5    2    3 1
6    2   31 1
7    2   32 1
8    3    4 1
9    4    5 2
10    4    6 am
11    6   27 1
12    6    7 1
13    7    8 1
14    7   33 1
15    7   34 1
16    8    9 1
17    8   35 1
18    8   36 1
19    9   10 2
20    9   26 1
21   10   25 1
22   10   11 1
23   11   17 ar
24   11   12 ar
25   12   13 ar
26   12   37 1
27   13   14 ar
28   13   38 1
29   14   15 1
30   14   16 ar
31   16   17 ar
32   16   39 1
33   17   18 1
34   18   19 1
35   18   40 1
36   18   41 1
37   19   20 1
38   19   42 1
39   19   43 1
40   20   25 ar
41   20   21 ar
42   21   22 ar
43   21   44 1
44   22   23 ar
45   22   45 1
46   23   24 ar
47   23   46 1
48   24   25 ar
49   26   27 1
50   26   47 1
51   26   48 1
52   27   49 1
53   27   50 1
