@<TRIPOS>MOLECULE
ZINC000000538273
46    49    1     0     0
SMALL
USER_CHARGES
@<TRIPOS>ATOM
1      C1     -0.4808    1.2986    0.1273 C.3      1 ZINC000000538273   -0.1700
2      C2     -0.3167   -0.2226    0.1198 C.3      1 ZINC000000538273    0.0900
3      H3     -1.2970   -0.6946    0.1860 H        1 ZINC000000538273    0.1000
4      C4      0.3725   -0.6558   -1.1768 C.3      1 ZINC000000538273    0.0500
5      O5      0.6420   -2.0612   -1.1060 O.3      1 ZINC000000538273   -0.2900
6      C6      1.3697   -2.4720   -0.0302 C.ar     1 ZINC000000538273    0.1200
7      C7      2.1680   -3.6033   -0.1206 C.ar     1 ZINC000000538273    0.0500
8      N8      2.2191   -4.3222   -1.3163 N.3      1 ZINC000000538273   -0.4800
9      C9      1.7686   -5.7071   -1.1178 C.3      1 ZINC000000538273    0.0200
10     C10     1.7830   -6.4422   -2.4599 C.3      1 ZINC000000538273    0.0000
11     N11     3.1439   -6.4262   -3.0125 N.4      1 ZINC000000538273   -0.3900
12     H12     3.7747   -6.8750   -2.3654 H        1 ZINC000000538273    0.4200
13     C13     3.1608   -7.1473   -4.2923 C.3      1 ZINC000000538273   -0.0400
14     C14     3.5704   -5.0373   -3.2281 C.3      1 ZINC000000538273    0.0000
15     C15     3.5708   -4.2905   -1.8925 C.3      1 ZINC000000538273    0.0200
16     C16     2.9207   -4.0271    0.9763 C.ar     1 ZINC000000538273    0.0400
17     F17     3.6924   -5.1316    0.8767 F        1 ZINC000000538273   -0.1400
18     C18     2.8800   -3.3286    2.1501 C.ar     1 ZINC000000538273   -0.0700
19     C19     2.0802   -2.1875    2.2562 C.ar     1 ZINC000000538273   -0.1300
20     C20     1.3101   -1.7537    1.1627 C.ar     1 ZINC000000538273    0.1500
21     N21     0.5046   -0.6334    1.2687 N.pl3    1 ZINC000000538273   -0.4900
22     C22     0.4444    0.0955    2.3938 C.2      1 ZINC000000538273    0.1400
23     C23     1.1593   -0.2275    3.5291 C.2      1 ZINC000000538273   -0.2800
24     C24     1.0565    0.6006    4.7347 C.2      1 ZINC000000538273    0.5300
25     O25     0.3321    1.5874    4.7396 O.co2    1 ZINC000000538273   -0.7000
26     O26     1.6950    0.3051    5.7365 O.co2    1 ZINC000000538273   -0.6600
27     C27     2.0270   -1.4174    3.5105 C.2      1 ZINC000000538273    0.4100
28     O28     2.6715   -1.7507    4.4897 O.2      1 ZINC000000538273   -0.4300
29     H29     0.4997    1.7701    0.0610 H        1 ZINC000000538273    0.0700
30     H30    -1.0886    1.6026   -0.7250 H        1 ZINC000000538273    0.0900
31     H31    -0.9705    1.6066    1.0511 H        1 ZINC000000538273    0.0900
32     H32    -0.2814   -0.4511   -2.0245 H        1 ZINC000000538273    0.1300
33     H33     1.3084   -0.1094   -1.2937 H        1 ZINC000000538273    0.0800
34     H34     2.4377   -6.2107   -0.4201 H        1 ZINC000000538273    0.0800
35     H35     0.7560   -5.7059   -0.7147 H        1 ZINC000000538273    0.1300
36     H36     1.4628   -7.4736   -2.3126 H        1 ZINC000000538273    0.1400
37     H37     1.1036   -5.9463   -3.1531 H        1 ZINC000000538273    0.1400
38     H38     2.4790   -6.6630   -4.9913 H        1 ZINC000000538273    0.1200
39     H39     4.1706   -7.1356   -4.7025 H        1 ZINC000000538273    0.1200
40     H40     2.8455   -8.1784   -4.1325 H        1 ZINC000000538273    0.1200
41     H41     4.5752   -5.0272   -3.6504 H        1 ZINC000000538273    0.1400
42     H42     2.8818   -4.5486   -3.9174 H        1 ZINC000000538273    0.1400
43     H43     3.8730   -3.2558   -2.0544 H        1 ZINC000000538273    0.1200
44     H44     4.2696   -4.7708   -1.2075 H        1 ZINC000000538273    0.0700
45     H45     3.4655   -3.6584    2.9956 H        1 ZINC000000538273    0.1600
46     H46    -0.1888    0.9703    2.4114 H        1 ZINC000000538273    0.1800
@<TRIPOS>BOND
1     1     2     1
2     1     29    1
3     1     30    1
4     1     31    1
5     2     3     1
6     2     21    1
7     2     4     1
8     4     5     1
9     4     32    1
10    4     33    1
11    5     6     1
12    6     20    ar
13    6     7     ar
14    7     8     1
15    7     16    ar
16    8     15    1
17    8     9     1
18    9     10    1
19    9     34    1
20    9     35    1
21    10    11    1
22    10    36    1
23    10    37    1
24    11    12    1
25    11    13    1
26    11    14    1
27    13    38    1
28    13    39    1
29    13    40    1
30    14    15    1
31    14    41    1
32    14    42    1
33    15    43    1
34    15    44    1
35    16    17    1
36    16    18    ar
37    18    19    ar
38    18    45    1
39    19    27    1
40    19    20    ar
41    20    21    1
42    21    22    1
43    22    23    2
44    22    46    1
45    23    24    1
46    23    27    1
47    24    25    ar
48    24    26    ar
49    27    28    2
@<TRIPOS>SUBSTRUCTURE
1   ZINC000000538273 1     RESIDUE    1   A     ZIN   1
