@<TRIPOS>MOLECULE
ZINC000001530427
13    13    1     0     0
SMALL
USER_CHARGES
@<TRIPOS>ATOM
1      C1     -0.0187    1.5258    0.0104 C.3      1 ZINC000001530427   -0.1500
2      C2      0.0021   -0.0041    0.0020 C.3      1 ZINC000001530427   -0.0200
3      H3      0.0748   -0.4707   -0.9804 H        1 ZINC000001530427    0.0900
4      O4     -0.7484   -0.6857    1.0091 O.3      1 ZINC000001530427   -0.3500
5      C5      0.6718   -0.7145    1.1800 C.3      1 ZINC000001530427   -0.5600
6      H6      1.1886   -1.6531    0.9801 H        1 ZINC000001530427    0.0700
7      P7      1.3896    0.3180    2.4999 P.3      1 ZINC000001530427    2.2000
8      O8      2.5454    1.1941    1.9073 O.co2    1 ZINC000001530427   -1.1700
9      O9      0.2802    1.2504    3.0951 O.co2    1 ZINC000001530427   -1.1600
10     O10     1.9601   -0.6031    3.6315 O.co2    1 ZINC000001530427   -1.1800
11     H11     1.0039    1.9031    0.0027 H        1 ZINC000001530427    0.0900
12     H12    -0.5459    1.8868   -0.8726 H        1 ZINC000001530427    0.0400
13     H13    -0.5289    1.8773    0.9072 H        1 ZINC000001530427    0.0900
@<TRIPOS>BOND
1     1     2     1
2     1     11    1
3     1     12    1
4     1     13    1
5     2     3     1
6     2     5     1
7     2     4     1
8     4     5     1
9     5     6     1
10    5     7     1
11    7     8     ar
12    7     9     ar
13    7     10    ar
@<TRIPOS>SUBSTRUCTURE
1   ZINC000001530427 1     RESIDUE    1   A     ZIN   1
