@<TRIPOS>MOLECULE
ZINC000000968257
45    47    1     0     0
SMALL
USER_CHARGES
@<TRIPOS>ATOM
1      C1     -0.0178    1.4648    0.0101 C.3      1 ZINC000000968257   -0.0500
2      N2      0.0021   -0.0041    0.0020 N.4      1 ZINC000000968257   -0.3900
3      H3      0.4901   -0.3383    0.8195 H        1 ZINC000000968257    0.4300
4      C4     -1.3761   -0.5125    0.0124 C.3      1 ZINC000000968257   -0.0500
5      C5      0.6897   -0.4778   -1.2066 C.3      1 ZINC000000968257   -0.0100
6      C6      2.1588   -0.0534   -1.1571 C.3      1 ZINC000000968257   -0.1200
7      C7      2.8641   -0.5394   -2.3969 C.2      1 ZINC000000968257   -0.1700
8      C8      3.5250    0.3270   -3.1738 C.2      1 ZINC000000968257    0.0100
9      C9      3.5926    1.7783   -2.8448 C.ar     1 ZINC000000968257   -0.0600
10     C10     4.0786    2.1399   -1.5884 C.ar     1 ZINC000000968257   -0.1100
11     C11     4.1856    3.4683   -1.2363 C.ar     1 ZINC000000968257   -0.1200
12     C12     3.8081    4.4388   -2.1470 C.ar     1 ZINC000000968257   -0.1100
13     C13     3.3203    4.0830   -3.3835 C.ar     1 ZINC000000968257   -0.1300
14     C14     3.1877    2.7448   -3.7604 C.ar     1 ZINC000000968257   -0.0500
15     C15     2.5784    2.5356   -5.1265 C.3      1 ZINC000000968257   -0.0800
16     C16     2.3863    1.0787   -5.4912 C.3      1 ZINC000000968257   -0.0800
17     C17     3.6924    0.3380   -5.5941 C.ar     1 ZINC000000968257   -0.0700
18     C18     4.3309    0.1007   -6.7880 C.ar     1 ZINC000000968257   -0.1100
19     C19     5.5107   -0.6313   -6.7797 C.ar     1 ZINC000000968257   -0.1100
20     C20     6.0322   -1.1175   -5.5943 C.ar     1 ZINC000000968257   -0.1200
21     C21     5.3935   -0.8633   -4.3907 C.ar     1 ZINC000000968257   -0.1000
22     C22     4.2345   -0.1126   -4.4066 C.ar     1 ZINC000000968257   -0.0700
23     H23     1.0047    1.8421    0.0024 H        1 ZINC000000968257    0.1200
24     H24    -0.5450    1.8259   -0.8730 H        1 ZINC000000968257    0.1200
25     H25    -0.5280    1.8163    0.9069 H        1 ZINC000000968257    0.1200
26     H26    -1.9033   -0.1515   -0.8706 H        1 ZINC000000968257    0.1200
27     H27    -1.3613   -1.6024    0.0064 H        1 ZINC000000968257    0.1200
28     H28    -1.8863   -0.1610    0.9092 H        1 ZINC000000968257    0.1200
29     H29     0.6270   -1.5648   -1.2578 H        1 ZINC000000968257    0.1300
30     H30     0.2158   -0.0447   -2.0875 H        1 ZINC000000968257    0.1300
31     H31     2.2214    1.0336   -1.1059 H        1 ZINC000000968257    0.1000
32     H32     2.6326   -0.4865   -0.2761 H        1 ZINC000000968257    0.1000
33     H33     2.8363   -1.5868   -2.6585 H        1 ZINC000000968257    0.1300
34     H34     4.3728    1.3738   -0.8863 H        1 ZINC000000968257    0.1200
35     H35     4.5597    3.7478   -0.2625 H        1 ZINC000000968257    0.1300
36     H36     3.8965    5.4829   -1.8855 H        1 ZINC000000968257    0.1300
37     H37     3.0324    4.8574   -4.0791 H        1 ZINC000000968257    0.1200
38     H38     1.6086    3.0325   -5.1551 H        1 ZINC000000968257    0.0900
39     H39     3.2257    2.9986   -5.8713 H        1 ZINC000000968257    0.0800
40     H40     1.7691    0.6023   -4.7296 H        1 ZINC000000968257    0.0700
41     H41     1.8702    1.0195   -6.4495 H        1 ZINC000000968257    0.0800
42     H42     3.9227    0.4762   -7.7147 H        1 ZINC000000968257    0.1300
43     H43     6.0266   -0.8236   -7.7088 H        1 ZINC000000968257    0.1300
44     H44     6.9423   -1.6988   -5.6067 H        1 ZINC000000968257    0.1300
45     H45     5.7931   -1.2416   -3.4614 H        1 ZINC000000968257    0.1300
@<TRIPOS>BOND
1     1     2     1
2     1     23    1
3     1     24    1
4     1     25    1
5     2     3     1
6     2     4     1
7     2     5     1
8     4     26    1
9     4     27    1
10    4     28    1
11    5     6     1
12    5     29    1
13    5     30    1
14    6     7     1
15    6     31    1
16    6     32    1
17    7     8     2
18    7     33    1
19    8     22    1
20    8     9     1
21    9     14    ar
22    9     10    ar
23    10    11    ar
24    10    34    1
25    11    12    ar
26    11    35    1
27    12    13    ar
28    12    36    1
29    13    14    ar
30    13    37    1
31    14    15    1
32    15    16    1
33    15    38    1
34    15    39    1
35    16    17    1
36    16    40    1
37    16    41    1
38    17    22    ar
39    17    18    ar
40    18    19    ar
41    18    42    1
42    19    20    ar
43    19    43    1
44    20    21    ar
45    20    44    1
46    21    22    ar
47    21    45    1
@<TRIPOS>SUBSTRUCTURE
1   ZINC000000968257 1     RESIDUE    1   A     ZIN   1
