@<TRIPOS>MOLECULE
ZINC000003871832
72    73    1     0     0
SMALL
USER_CHARGES
@<TRIPOS>ATOM
1      C1      2.4808    1.3561    2.3610 C.3      1 ZINC000003871832    0.0200
2      O2      2.2692   -0.0427    2.1592 O.3      1 ZINC000003871832   -0.3000
3      C3      2.5871   -0.5450    0.9361 C.ar     1 ZINC000003871832    0.1200
4      C4      3.0966    0.2888   -0.0457 C.ar     1 ZINC000003871832   -0.1700
5      C5      3.4197   -0.2238   -1.2888 C.ar     1 ZINC000003871832   -0.1000
6      C6      3.2351   -1.5674   -1.5550 C.ar     1 ZINC000003871832   -0.1100
7      C7      3.5884   -2.1206   -2.9115 C.3      1 ZINC000003871832   -0.0900
8      C8      5.0468   -2.5831   -2.9096 C.3      1 ZINC000003871832   -0.0100
9      N9      5.3912   -3.1224   -4.2319 N.4      1 ZINC000003871832   -0.3900
10     H10     4.7384   -3.8511   -4.4784 H        1 ZINC000003871832    0.4200
11     C11     5.3257   -2.0477   -5.2312 C.3      1 ZINC000003871832   -0.0600
12     C12     6.7517   -3.6753   -4.1960 C.3      1 ZINC000003871832   -0.0100
13     C13     7.0645   -4.3475   -5.5344 C.3      1 ZINC000003871832   -0.1600
14     C14     8.4814   -4.9234   -5.4970 C.3      1 ZINC000003871832   -0.1000
15     C15     8.7497   -5.7020   -6.7865 C.3      1 ZINC000003871832    0.1000
16     C16     8.7351   -4.7761   -7.9308 C.1      1 ZINC000003871832    0.2000
17     N17     8.7239   -4.0616   -8.8138 N.1      1 ZINC000003871832   -0.4100
18     C18    10.0973   -6.3707   -6.6985 C.ar     1 ZINC000003871832   -0.0900
19     C19    10.2043   -7.7348   -6.8933 C.ar     1 ZINC000003871832   -0.1200
20     C20    11.4385   -8.3531   -6.8132 C.ar     1 ZINC000003871832   -0.1800
21     C21    12.5714   -7.6051   -6.5374 C.ar     1 ZINC000003871832    0.1200
22     O22    13.7860   -8.2116   -6.4587 O.3      1 ZINC000003871832   -0.3000
23     C23    13.8208   -9.6242   -6.6712 C.3      1 ZINC000003871832    0.0200
24     C24    12.4637   -6.2312   -6.3416 C.ar     1 ZINC000003871832    0.1000
25     O25    13.5730   -5.4924   -6.0711 O.3      1 ZINC000003871832   -0.3000
26     C26    13.3870   -4.0883   -5.8818 C.3      1 ZINC000003871832    0.0300
27     C27    11.2250   -5.6172   -6.4285 C.ar     1 ZINC000003871832   -0.1600
28     C28     7.6648   -6.7641   -6.9760 C.3      1 ZINC000003871832   -0.0800
29     C29     7.8572   -7.4541   -8.3280 C.3      1 ZINC000003871832   -0.1800
30     C30     7.7648   -7.8010   -5.8554 C.3      1 ZINC000003871832   -0.1900
31     C31     2.7272   -2.4053   -0.5791 C.ar     1 ZINC000003871832   -0.1700
32     C32     2.4065   -1.8993    0.6699 C.ar     1 ZINC000003871832    0.1100
33     O33     1.9070   -2.7220    1.6307 O.3      1 ZINC000003871832   -0.3000
34     C34     1.7386   -4.0979    1.2834 C.3      1 ZINC000003871832    0.0300
35     H35     3.5354    1.5890    2.2137 H        1 ZINC000003871832    0.0600
36     H36     1.8809    1.9210    1.6475 H        1 ZINC000003871832    0.0600
37     H37     2.1875    1.6253    3.3757 H        1 ZINC000003871832    0.1100
38     H38     3.2412    1.3392    0.1595 H        1 ZINC000003871832    0.1400
39     H39     3.8169    0.4273   -2.0534 H        1 ZINC000003871832    0.1300
40     H40     2.9394   -2.9661   -3.1393 H        1 ZINC000003871832    0.0900
41     H41     3.4540   -1.3457   -3.6661 H        1 ZINC000003871832    0.1000
42     H42     5.6958   -1.7376   -2.6817 H        1 ZINC000003871832    0.1300
43     H43     5.1812   -3.3580   -2.1549 H        1 ZINC000003871832    0.1300
44     H44     5.5812   -2.4478   -6.2124 H        1 ZINC000003871832    0.1200
45     H45     4.3162   -1.6374   -5.2578 H        1 ZINC000003871832    0.1300
46     H46     6.0309   -1.2604   -4.9649 H        1 ZINC000003871832    0.1200
47     H47     7.4660   -2.8716   -4.0174 H        1 ZINC000003871832    0.1300
48     H48     6.8241   -4.4105   -3.3945 H        1 ZINC000003871832    0.1400
49     H49     6.3502   -5.1512   -5.7130 H        1 ZINC000003871832    0.1000
50     H50     6.9921   -3.6123   -6.3359 H        1 ZINC000003871832    0.0900
51     H51     9.2018   -4.1104   -5.4070 H        1 ZINC000003871832    0.0800
52     H52     8.5794   -5.5921   -4.6418 H        1 ZINC000003871832    0.1000
53     H53     9.3218   -8.3191   -7.1084 H        1 ZINC000003871832    0.1700
54     H54    11.5193   -9.4193   -6.9651 H        1 ZINC000003871832    0.1400
55     H55    13.4444   -9.8509   -7.6687 H        1 ZINC000003871832    0.0600
56     H56    14.8470   -9.9802   -6.5806 H        1 ZINC000003871832    0.1100
57     H57    13.1975  -10.1192   -5.9265 H        1 ZINC000003871832    0.0600
58     H58    14.3487   -3.6192   -5.6736 H        1 ZINC000003871832    0.1100
59     H59    12.9586   -3.6535   -6.7848 H        1 ZINC000003871832    0.0500
60     H60    12.7120   -3.9211   -5.0424 H        1 ZINC000003871832    0.0500
61     H61    11.1388   -4.5514   -6.2769 H        1 ZINC000003871832    0.1300
62     H62     6.6835   -6.2905   -6.9462 H        1 ZINC000003871832    0.0800
63     H63     8.8013   -7.9989   -8.3268 H        1 ZINC000003871832    0.0900
64     H64     7.0363   -8.1501   -8.5008 H        1 ZINC000003871832    0.0700
65     H65     7.8711   -6.7049   -9.1196 H        1 ZINC000003871832    0.0600
66     H66     7.5370   -7.3272   -4.9006 H        1 ZINC000003871832    0.0600
67     H67     7.0535   -8.6058   -6.0406 H        1 ZINC000003871832    0.0700
68     H68     8.7753   -8.2086   -5.8268 H        1 ZINC000003871832    0.1000
69     H69     2.5839   -3.4548   -0.7896 H        1 ZINC000003871832    0.1400
70     H70     1.3339   -4.6413    2.1372 H        1 ZINC000003871832    0.1100
71     H71     1.0504   -4.1786    0.4419 H        1 ZINC000003871832    0.0600
72     H72     2.7031   -4.5232    1.0060 H        1 ZINC000003871832    0.0500
@<TRIPOS>BOND
1     1     2     1
2     1     35    1
3     1     36    1
4     1     37    1
5     2     3     1
6     3     32    ar
7     3     4     ar
8     4     5     ar
9     4     38    1
10    5     6     ar
11    5     39    1
12    6     7     1
13    6     31    ar
14    7     8     1
15    7     40    1
16    7     41    1
17    8     9     1
18    8     42    1
19    8     43    1
20    9     10    1
21    9     11    1
22    9     12    1
23    11    44    1
24    11    45    1
25    11    46    1
26    12    13    1
27    12    47    1
28    12    48    1
29    13    14    1
30    13    49    1
31    13    50    1
32    14    15    1
33    14    51    1
34    14    52    1
35    15    16    1
36    15    18    1
37    15    28    1
38    16    17    3
39    18    27    ar
40    18    19    ar
41    19    20    ar
42    19    53    1
43    20    21    ar
44    20    54    1
45    21    22    1
46    21    24    ar
47    22    23    1
48    23    55    1
49    23    56    1
50    23    57    1
51    24    25    1
52    24    27    ar
53    25    26    1
54    26    58    1
55    26    59    1
56    26    60    1
57    27    61    1
58    28    29    1
59    28    30    1
60    28    62    1
61    29    63    1
62    29    64    1
63    29    65    1
64    30    66    1
65    30    67    1
66    30    68    1
67    31    32    ar
68    31    69    1
69    32    33    1
70    33    34    1
71    34    70    1
72    34    71    1
73    34    72    1
@<TRIPOS>SUBSTRUCTURE
1   ZINC000003871832 1     RESIDUE    1   A     ZIN   1
