@<TRIPOS>MOLECULE
ZINC000028957444
64    68    1     0     0
SMALL
USER_CHARGES
@<TRIPOS>ATOM
1      C1     -0.0187    1.5258    0.0104 C.3      1 ZINC000028957444   -0.1500
2      C2      0.0021   -0.0041    0.0020 C.3      1 ZINC000028957444   -0.1100
3      C3     -1.4333   -0.5336    0.0129 C.3      1 ZINC000028957444   -0.1100
4      S4     -1.4088   -2.3435    0.0029 S.3      1 ZINC000028957444    0.0400
5      C5     -3.1396   -2.6730    0.0177 C.ar     1 ZINC000028957444    0.3900
6      N6     -3.9872   -1.6505    0.0258 N.ar     1 ZINC000028957444   -0.6000
7      C7     -5.2993   -1.8456    0.0366 C.ar     1 ZINC000028957444    0.5500
8      N8     -6.1717   -0.7742    0.0445 N.pl3    1 ZINC000028957444   -0.6500
9      C9     -5.6504    0.5949    0.0410 C.3      1 ZINC000028957444    0.1000
10     H10    -4.5778    0.6891   -0.1288 H        1 ZINC000028957444    0.1500
11     C11    -6.3074    1.6034    0.9855 C.3      1 ZINC000028957444   -0.1800
12     C12    -6.5541    1.6934   -0.5226 C.3      1 ZINC000028957444   -0.1200
13     H13    -7.5365    1.3976   -0.8904 H        1 ZINC000028957444    0.1200
14     C14    -5.8936    2.8235   -1.2694 C.ar     1 ZINC000028957444   -0.0300
15     C15    -4.9583    3.6178   -0.6333 C.ar     1 ZINC000028957444   -0.1000
16     C16    -4.3511    4.6552   -1.3163 C.ar     1 ZINC000028957444   -0.1200
17     C17    -4.6791    4.8988   -2.6383 C.ar     1 ZINC000028957444    0.0700
18     F18    -4.0858    5.9120   -3.3066 F        1 ZINC000028957444   -0.1300
19     C19    -5.6172    4.1014   -3.2768 C.ar     1 ZINC000028957444    0.0700
20     F20    -5.9390    4.3373   -4.5675 F        1 ZINC000028957444   -0.1300
21     C21    -6.2196    3.0610   -2.5918 C.ar     1 ZINC000028957444   -0.1200
22     C22    -5.7852   -3.1699    0.0393 C.ar     1 ZINC000028957444   -0.1700
23     N23    -7.0140   -3.7147    0.0491 N.2      1 ZINC000028957444   -0.1800
24     N24    -6.9290   -4.9993    0.0471 N.2      1 ZINC000028957444   -0.0100
25     N25    -5.5774   -5.3758    0.0354 N.pl3    1 ZINC000028957444   -0.3700
26     C26    -5.0494   -6.7424    0.0290 C.3      1 ZINC000028957444    0.1700
27     H27    -3.9599   -6.7213    0.0071 H        1 ZINC000028957444    0.1400
28     C28    -5.5878   -7.5111   -1.1954 C.3      1 ZINC000028957444   -0.1300
29     C29    -5.8203   -8.9491   -0.6689 C.3      1 ZINC000028957444    0.1000
30     H30    -4.8841   -9.5066   -0.6417 H        1 ZINC000028957444    0.0900
31     O31    -6.7900   -9.6301   -1.4676 O.3      1 ZINC000028957444   -0.3600
32     C32    -6.5999  -11.0450   -1.5318 C.3      1 ZINC000028957444    0.0600
33     C33    -7.6889  -11.6666   -2.4084 C.3      1 ZINC000028957444    0.0800
34     O34    -7.5406  -11.2039   -3.7522 O.3      1 ZINC000028957444   -0.5700
35     C35    -6.3563   -8.7060    0.7638 C.3      1 ZINC000028957444    0.0500
36     H36    -7.4183   -8.4619    0.7375 H        1 ZINC000028957444    0.0900
37     O37    -6.1283   -9.8534    1.5844 O.3      1 ZINC000028957444   -0.5500
38     C38    -5.5370   -7.5017    1.2753 C.3      1 ZINC000028957444    0.0700
39     H39    -6.1668   -6.8535    1.8847 H        1 ZINC000028957444    0.0700
40     O40    -4.4203   -7.9590    2.0408 O.3      1 ZINC000028957444   -0.5400
41     C41    -4.8492   -4.2188    0.0305 C.ar     1 ZINC000028957444    0.3600
42     N42    -3.5507   -3.9308    0.0149 N.ar     1 ZINC000028957444   -0.5400
43     H43     1.0039    1.9031    0.0027 H        1 ZINC000028957444    0.0600
44     H44    -0.5459    1.8868   -0.8726 H        1 ZINC000028957444    0.0600
45     H45    -0.5289    1.8773    0.9072 H        1 ZINC000028957444    0.0600
46     H46     0.5123   -0.3556   -0.8948 H        1 ZINC000028957444    0.0700
47     H47     0.5293   -0.3651    0.8851 H        1 ZINC000028957444    0.0700
48     H48    -1.9435   -0.1821    0.9097 H        1 ZINC000028957444    0.1000
49     H49    -1.9605   -0.1726   -0.8702 H        1 ZINC000028957444    0.1000
50     H50    -7.1293   -0.9286    0.0523 H        1 ZINC000028957444    0.4200
51     H51    -7.1275    1.2482    1.6095 H        1 ZINC000028957444    0.1100
52     H52    -5.6672    2.3613    1.4368 H        1 ZINC000028957444    0.1100
53     H53    -4.7019    3.4282    0.3985 H        1 ZINC000028957444    0.1400
54     H54    -3.6209    5.2756   -0.8180 H        1 ZINC000028957444    0.1500
55     H55    -6.9501    2.4391   -3.0879 H        1 ZINC000028957444    0.1500
56     H56    -6.5257   -7.0740   -1.5381 H        1 ZINC000028957444    0.1000
57     H57    -4.8509   -7.5134   -1.9986 H        1 ZINC000028957444    0.1000
58     H58    -5.6212  -11.2610   -1.9604 H        1 ZINC000028957444    0.0600
59     H59    -6.6577  -11.4653   -0.5278 H        1 ZINC000028957444    0.0700
60     H60    -7.5976  -12.7526   -2.3859 H        1 ZINC000028957444    0.0600
61     H61    -8.6693  -11.3766   -2.0303 H        1 ZINC000028957444    0.0500
62     H62    -8.1992  -11.5584   -4.3652 H        1 ZINC000028957444    0.3800
63     H63    -6.4445   -9.7562    2.4931 H        1 ZINC000028957444    0.3800
64     H64    -4.6639   -8.4637    2.8288 H        1 ZINC000028957444    0.3900
@<TRIPOS>BOND
1     1     2     1
2     1     43    1
3     1     44    1
4     1     45    1
5     2     3     1
6     2     46    1
7     2     47    1
8     3     4     1
9     3     48    1
10    3     49    1
11    4     5     1
12    5     42    ar
13    5     6     ar
14    6     7     ar
15    7     8     1
16    7     22    ar
17    8     9     1
18    8     50    1
19    9     10    1
20    9     12    1
21    9     11    1
22    11    12    1
23    11    51    1
24    11    52    1
25    12    13    1
26    12    14    1
27    14    21    ar
28    14    15    ar
29    15    16    ar
30    15    53    1
31    16    17    ar
32    16    54    1
33    17    18    1
34    17    19    ar
35    19    20    1
36    19    21    ar
37    21    55    1
38    22    41    ar
39    22    23    1
40    23    24    2
41    24    25    1
42    25    26    1
43    25    41    1
44    26    27    1
45    26    38    1
46    26    28    1
47    28    29    1
48    28    56    1
49    28    57    1
50    29    30    1
51    29    31    1
52    29    35    1
53    31    32    1
54    32    33    1
55    32    58    1
56    32    59    1
57    33    34    1
58    33    60    1
59    33    61    1
60    34    62    1
61    35    36    1
62    35    37    1
63    35    38    1
64    37    63    1
65    38    39    1
66    38    40    1
67    40    64    1
68    41    42    ar
@<TRIPOS>SUBSTRUCTURE
1   ZINC000028957444 1     RESIDUE    1   A     ZIN   1
