@<TRIPOS>MOLECULE
ZINC000003830215
44   46    0    0    0
SMALL
USER_CHARGES
NO_NAME
@<TRIPOS>ATOM
1 C1       -0.0187     1.5258     0.0104 C.3    1 <0>      -0.1300
2 C2        0.0021    -0.0041     0.0020 C.3    1 <0>       0.0300
3 C3       -1.4134    -0.5749    -0.1053 C.3    1 <0>      -0.1200
4 S4        1.0907    -0.6522    -1.3359 S.3    1 <0>      -0.3000
5 C5        2.6329    -0.5170    -0.3543 C.3    1 <0>       0.0800
6 H6        3.2816     0.3031    -0.6620 H      1 <0>       0.1500
7 C7        3.3483    -1.8438    -0.1277 C.3    1 <0>       0.0900
8 H8        4.4222    -1.8139    -0.3121 H      1 <0>       0.1500
9 N9        2.6851    -3.0008    -0.7340 N.am   1 <0>      -0.6600
10 C10       3.4015    -4.0962    -1.0557 C.2    1 <0>       0.5100
11 O11       4.5952    -4.1240    -0.8432 O.2    1 <0>      -0.5200
12 C12       2.7192    -5.2863    -1.6795 C.3    1 <0>       0.0700
13 H13       1.7530    -5.4437    -1.2002 H      1 <0>       0.1700
14 N14       3.5556    -6.4804    -1.4990 N.4    1 <0>      -0.6200
15 H15       3.0988    -7.2773    -1.9166 H      1 <0>       0.4400
16 H16       4.4500    -6.3347    -1.9427 H      1 <0>       0.4400
17 H17       3.6924    -6.6494    -0.5137 H      1 <0>       0.4400
18 C18       2.5148    -5.0340    -3.1511 C.ar   1 <0>      -0.1600
19 C19       3.5614    -5.2203    -4.0352 C.ar   1 <0>      -0.0900
20 C20       3.3766    -4.9896    -5.3846 C.ar   1 <0>      -0.1400
21 C21       2.1394    -4.5711    -5.8526 C.ar   1 <0>       0.1500
22 O22       1.9550    -4.3440    -7.1797 O.3    1 <0>      -0.4900
23 C23       1.0908    -4.3853    -4.9635 C.ar   1 <0>      -0.1300
24 C24       1.2794    -4.6220    -3.6156 C.ar   1 <0>      -0.0600
25 C25       2.9546    -1.5777     1.3007 C.2    1 <0>       0.4800
26 O26       3.2279    -2.1501     2.3345 O.2    1 <0>      -0.4300
27 N27       2.1938    -0.4697     1.0469 N.am   1 <0>      -0.4700
28 C28       0.7447    -0.5655     1.2444 C.3    1 <0>       0.0300
29 H29       0.4661    -1.6109     1.3779 H      1 <0>       0.0700
30 C30       0.3544     0.2166     2.4720 C.2    1 <0>       0.5100
31 O31       1.1752     0.9242     3.0305 O.co2  1 <0>      -0.6500
32 O32      -0.7823     0.1417     2.9067 O.co2  1 <0>      -0.6800
33 H33       1.0039     1.9031     0.0027 H      1 <0>       0.0600
34 H34      -0.5459     1.8868    -0.8726 H      1 <0>       0.0600
35 H35      -0.5289     1.8773     0.9072 H      1 <0>       0.0900
36 H36      -1.8805    -0.2180    -1.0232 H      1 <0>       0.0700
37 H37      -1.3658    -1.6638    -0.1215 H      1 <0>       0.0600
38 H38      -2.0023    -0.2497     0.7523 H      1 <0>       0.1000
39 H39       1.7303    -2.9785    -0.9040 H      1 <0>       0.4200
40 H40       4.5243    -5.5461    -3.6704 H      1 <0>       0.1300
41 H41       4.1946    -5.1346    -6.0747 H      1 <0>       0.1400
42 H42       1.6585    -5.1203    -7.6741 H      1 <0>       0.4000
43 H43       0.1268    -4.0592    -5.3253 H      1 <0>       0.1500
44 H44       0.4632    -4.4778    -2.9231 H      1 <0>       0.1400
@<TRIPOS>BOND
1    1    2 1
2    1   33 1
3    1   34 1
4    1   35 1
5    2   28 1
6    2    3 1
7    2    4 1
8    3   36 1
9    3   37 1
10    3   38 1
11    4    5 1
12    5    6 1
13    5   27 1
14    5    7 1
15    7    8 1
16    7    9 1
17    7   25 1
18    9   10 am
19    9   39 1
20   10   11 2
21   10   12 1
22   12   13 1
23   12   14 1
24   12   18 1
25   14   15 1
26   14   16 1
27   14   17 1
28   18   24 ar
29   18   19 ar
30   19   20 ar
31   19   40 1
32   20   21 ar
33   20   41 1
34   21   22 1
35   21   23 ar
36   22   42 1
37   23   24 ar
38   23   43 1
39   24   44 1
40   25   26 2
41   25   27 am
42   27   28 1
43   28   29 1
44   28   30 1
45   30   31 ar
46   30   32 ar
