@<TRIPOS>MOLECULE
ZINC000036766734
49    49    1     0     0
SMALL
USER_CHARGES
@<TRIPOS>ATOM
1      C1      3.5075    1.0707    1.5769 C.3      1 ZINC000036766734   -0.1000
2      C2      3.2146   -0.4034    1.6885 C.2      1 ZINC000036766734   -0.0800
3      C3      2.2930   -0.8643    2.6372 C.2      1 ZINC000036766734   -0.0900
4      C4      1.6548    0.0291    3.4676 C.2      1 ZINC000036766734   -0.1500
5      C5      0.7324   -0.4323    4.4170 C.2      1 ZINC000036766734   -0.1100
6      C6      0.0996    0.4536    5.2403 C.2      1 ZINC000036766734   -0.1000
7      C7     -0.9880   -0.0242    6.1677 C.3      1 ZINC000036766734   -0.1100
8      C8      0.4624    1.8117    5.2233 C.2      1 ZINC000036766734   -0.1100
9      C9      0.9067    2.4106    6.3594 C.2      1 ZINC000036766734   -0.1100
10     C10     1.1453    1.6360    7.5224 C.2      1 ZINC000036766734   -0.1000
11     C11     2.0824    0.7042    7.4700 C.2      1 ZINC000036766734   -0.0900
12     C12     2.8424    0.5319    6.1802 C.3      1 ZINC000036766734   -0.1500
13     C13     2.4321   -0.1910    8.6231 C.3      1 ZINC000036766734   -0.0800
14     C14     1.8866    0.3934    9.9277 C.3      1 ZINC000036766734   -0.1200
15     C15     0.4085    0.7470    9.7229 C.3      1 ZINC000036766734   -0.1100
16     C16     0.3243    1.9235    8.7457 C.3      1 ZINC000036766734   -0.0200
17     C17     0.8443    3.1894    9.4298 C.3      1 ZINC000036766734   -0.1400
18     C18    -1.1334    2.1361    8.3322 C.3      1 ZINC000036766734   -0.1500
19     C19     3.8528   -1.2967    0.8582 C.2      1 ZINC000036766734   -0.1400
20     C20     4.8841   -0.8563    0.0130 C.2      1 ZINC000036766734    0.4400
21     O21     5.3272    0.3988    0.0997 O.co2    1 ZINC000036766734   -0.6900
22     O22     5.4206   -1.6931   -0.8765 O.co2    1 ZINC000036766734   -0.7200
23     H23     4.4000    1.3086    2.1558 H        1 ZINC000036766734    0.0700
24     H24     3.6729    1.3301    0.5312 H        1 ZINC000036766734    0.0900
25     H25     2.6617    1.6395    1.9630 H        1 ZINC000036766734    0.0300
26     H26     2.0831   -1.9207    2.7172 H        1 ZINC000036766734    0.1100
27     H27     1.8647    1.0855    3.3876 H        1 ZINC000036766734    0.1200
28     H28     0.5224   -1.4886    4.4970 H        1 ZINC000036766734    0.1100
29     H29    -0.5557   -0.2734    7.1367 H        1 ZINC000036766734    0.0700
30     H30    -1.7308    0.7637    6.2929 H        1 ZINC000036766734    0.0700
31     H31    -1.4642   -0.9084    5.7440 H        1 ZINC000036766734    0.0600
32     H32     0.3880    2.3790    4.3073 H        1 ZINC000036766734    0.1200
33     H33     1.0780    3.4768    6.3763 H        1 ZINC000036766734    0.1100
34     H34     3.7488    1.1367    6.2089 H        1 ZINC000036766734    0.0600
35     H35     3.1096   -0.5172    6.0532 H        1 ZINC000036766734    0.0600
36     H36     2.2186    0.8515    5.3454 H        1 ZINC000036766734    0.1000
37     H37     1.9978   -1.1773    8.4595 H        1 ZINC000036766734    0.0700
38     H38     3.5159   -0.2828    8.6936 H        1 ZINC000036766734    0.0700
39     H39     1.9797   -0.3430   10.7259 H        1 ZINC000036766734    0.0600
40     H40     2.4454    1.2923   10.1881 H        1 ZINC000036766734    0.0700
41     H41    -0.1203   -0.1133    9.3126 H        1 ZINC000036766734    0.0600
42     H42    -0.0352    1.0323   10.6767 H        1 ZINC000036766734    0.0600
43     H43     1.9067    3.0755    9.6456 H        1 ZINC000036766734    0.0600
44     H44     0.6971    4.0451    8.7709 H        1 ZINC000036766734    0.0500
45     H45     0.2997    3.3494   10.3603 H        1 ZINC000036766734    0.0500
46     H46    -1.6957    2.5362    9.1759 H        1 ZINC000036766734    0.0500
47     H47    -1.1763    2.8396    7.5007 H        1 ZINC000036766734    0.0600
48     H48    -1.5666    1.1841    8.0255 H        1 ZINC000036766734    0.0700
49     H49     3.5603   -2.3364    0.8568 H        1 ZINC000036766734    0.1100
@<TRIPOS>BOND
1     1     2     1
2     1     23    1
3     1     24    1
4     1     25    1
5     2     3     1
6     2     19    2
7     3     4     2
8     3     26    1
9     4     5     1
10    4     27    1
11    5     6     2
12    5     28    1
13    6     7     1
14    6     8     1
15    7     29    1
16    7     30    1
17    7     31    1
18    8     9     2
19    8     32    1
20    9     10    1
21    9     33    1
22    10    16    1
23    10    11    2
24    11    12    1
25    11    13    1
26    12    34    1
27    12    35    1
28    12    36    1
29    13    14    1
30    13    37    1
31    13    38    1
32    14    15    1
33    14    39    1
34    14    40    1
35    15    16    1
36    15    41    1
37    15    42    1
38    16    17    1
39    16    18    1
40    17    43    1
41    17    44    1
42    17    45    1
43    18    46    1
44    18    47    1
45    18    48    1
46    19    20    1
47    19    49    1
48    20    21    ar
49    20    22    ar
@<TRIPOS>SUBSTRUCTURE
1   ZINC000036766734 1     RESIDUE    1   A     ZIN   1
