@<TRIPOS>MOLECULE
ZINC000005162311
33   34    0    0    0
SMALL
USER_CHARGES
NO_NAME
@<TRIPOS>ATOM
1 N1        0.4328     1.2735    -0.0716 N.am   1 <0>      -0.8600
2 C2        0.3337    -0.0706    -0.0625 C.2    1 <0>       0.5100
3 O3        1.3355    -0.7528    -0.1082 O.2    1 <0>      -0.5200
4 C4       -1.0217    -0.7258     0.0044 C.3    1 <0>      -0.0900
5 C5       -0.8563    -2.2237     0.0014 C.ar   1 <0>      -0.1500
6 C6       -0.9353    -2.9232    -1.1850 C.ar   1 <0>      -0.0400
7 C7       -0.7841    -4.3015    -1.1995 C.ar   1 <0>      -0.1800
8 C8       -0.5537    -4.9888    -0.0289 C.ar   1 <0>      -0.0300
9 C9       -0.4708    -4.2951     1.1826 C.ar   1 <0>      -0.2300
10 C10      -0.2240    -5.0237     2.4389 C.2    1 <0>       0.4500
11 O11       0.8909    -5.4376     2.6928 O.2    1 <0>      -0.4400
12 C12      -1.3315    -5.2517     3.3909 C.ar   1 <0>      -0.1700
13 C13      -2.6352    -4.8842     3.0512 C.ar   1 <0>      -0.0600
14 C14      -3.6641    -5.1003     3.9441 C.ar   1 <0>      -0.1300
15 C15      -3.4067    -5.6793     5.1742 C.ar   1 <0>      -0.0900
16 C16      -2.1171    -6.0455     5.5175 C.ar   1 <0>      -0.1300
17 C17      -1.0798    -5.8409     4.6317 C.ar   1 <0>      -0.0600
18 C18      -0.6187    -2.8981     1.1928 C.ar   1 <0>       0.2700
19 N19      -0.5387    -2.1965     2.3879 N.pl3  1 <0>      -0.8600
20 H20       1.3052     1.6953    -0.1147 H      1 <0>       0.4000
21 H21      -0.3686     1.8191    -0.0391 H      1 <0>       0.4000
22 H22      -1.5292    -0.4181     0.9187 H      1 <0>       0.1000
23 H23      -1.6142    -0.4239    -0.8592 H      1 <0>       0.1100
24 H24      -1.1164    -2.3938    -2.1088 H      1 <0>       0.1200
25 H25      -0.8478    -4.8389    -2.1341 H      1 <0>       0.1300
26 H26      -0.4375    -6.0624    -0.0462 H      1 <0>       0.1300
27 H27      -2.8374    -4.4315     2.0917 H      1 <0>       0.1300
28 H28      -4.6728    -4.8165     3.6826 H      1 <0>       0.1300
29 H29      -4.2159    -5.8459     5.8698 H      1 <0>       0.1300
30 H30      -1.9230    -6.4963     6.4795 H      1 <0>       0.1300
31 H31      -0.0738    -6.1271     4.9008 H      1 <0>       0.1300
32 H32      -0.3062    -2.6599     3.2077 H      1 <0>       0.4000
33 H33      -0.7154    -1.2428     2.4032 H      1 <0>       0.4000
@<TRIPOS>BOND
1    1    2 am
2    1   20 1
3    1   21 1
4    2    3 2
5    2    4 1
6    4    5 1
7    4   22 1
8    4   23 1
9    5   18 ar
10    5    6 ar
11    6    7 ar
12    6   24 1
13    7    8 ar
14    7   25 1
15    8    9 ar
16    8   26 1
17    9   10 1
18    9   18 ar
19   10   11 2
20   10   12 1
21   12   17 ar
22   12   13 ar
23   13   14 ar
24   13   27 1
25   14   15 ar
26   14   28 1
27   15   16 ar
28   15   29 1
29   16   17 ar
30   16   30 1
31   17   31 1
32   18   19 1
33   19   32 1
34   19   33 1
