@<TRIPOS>MOLECULE
ZINC000000057512
42    43    1     0     0
SMALL
USER_CHARGES
@<TRIPOS>ATOM
1      C1     -0.0184    1.5028    0.0103 C.3      1 ZINC000000057512   -0.1200
2      C2      0.0021   -0.0041    0.0020 C.ar     1 ZINC000000057512   -0.0300
3      C3      0.0057   -0.6887   -1.1989 C.ar     1 ZINC000000057512   -0.1400
4      C4      0.0245   -2.0709   -1.2065 C.ar     1 ZINC000000057512   -0.0100
5      C5      0.0400   -2.7685   -0.0132 C.ar     1 ZINC000000057512   -0.6500
6      S6      0.0633   -4.5303   -0.0229 S.o2     1 ZINC000000057512    2.6600
7      O7     -0.4690   -4.9455    1.2275 O.2      1 ZINC000000057512   -0.9800
8      O8     -0.4824   -4.9319   -1.2719 O.2      1 ZINC000000057512   -0.9800
9      N9      1.6514   -4.9995   -0.0340 N.am     1 ZINC000000057512   -0.9600
10     C10     1.9560   -6.2643   -0.0425 C.2      1 ZINC000000057512    0.7000
11     O11     0.9768   -7.1949   -0.0423 O.3      1 ZINC000000057512   -0.5000
12     N12     3.2731   -6.6534   -0.0516 N.pl3    1 ZINC000000057512   -0.5500
13     N13     4.2633   -5.7124   -0.0518 N.3      1 ZINC000000057512   -0.2800
14     C14     5.0001   -5.7175    1.2317 C.3      1 ZINC000000057512    0.0400
15     C15     6.1014   -6.7418    1.2685 C.3      1 ZINC000000057512   -0.1500
16     C16     7.4173   -6.0616    0.8361 C.3      1 ZINC000000057512   -0.1200
17     C17     7.5050   -5.9020   -0.6113 C.3      1 ZINC000000057512   -0.1200
18     C18     6.3720   -5.0155   -1.1695 C.3      1 ZINC000000057512   -0.1200
19     C19     5.1173   -5.8413   -1.2537 C.3      1 ZINC000000057512    0.0500
20     C20     0.0378   -2.0839    1.1877 C.ar     1 ZINC000000057512   -0.0100
21     C21     0.0229   -0.7016    1.1953 C.ar     1 ZINC000000057512   -0.1400
22     H22     1.0042    1.8801    0.0026 H        1 ZINC000000057512    0.0800
23     H23    -0.5455    1.8639   -0.8728 H        1 ZINC000000057512    0.0700
24     H24    -0.5286    1.8543    0.9071 H        1 ZINC000000057512    0.0700
25     H25    -0.0064   -0.1436   -2.1312 H        1 ZINC000000057512    0.1300
26     H26     0.0266   -2.6057   -2.1448 H        1 ZINC000000057512    0.1400
27     H27     1.3002   -8.1062   -0.0489 H        1 ZINC000000057512    0.4200
28     H28     3.5002   -7.5964   -0.0580 H        1 ZINC000000057512    0.3900
29     H29     5.4329   -4.7301    1.3925 H        1 ZINC000000057512    0.1000
30     H30     4.2983   -5.9268    2.0390 H        1 ZINC000000057512    0.0800
31     H31     6.2059   -7.1309    2.2813 H        1 ZINC000000057512    0.0800
32     H32     5.8674   -7.5560    0.5826 H        1 ZINC000000057512    0.0600
33     H33     7.4784   -5.0794    1.3047 H        1 ZINC000000057512    0.0700
34     H34     8.2571   -6.6671    1.1768 H        1 ZINC000000057512    0.0600
35     H35     8.4644   -5.4480   -0.8596 H        1 ZINC000000057512    0.0700
36     H36     7.4488   -6.8846   -1.0796 H        1 ZINC000000057512    0.0600
37     H37     6.2085   -4.1678   -0.5040 H        1 ZINC000000057512    0.0800
38     H38     6.6425   -4.6579   -2.1630 H        1 ZINC000000057512    0.0800
39     H39     5.3933   -6.8884   -1.3781 H        1 ZINC000000057512    0.0400
40     H40     4.5460   -5.5246   -2.1264 H        1 ZINC000000057512    0.0800
41     H41     0.0503   -2.6289    2.1200 H        1 ZINC000000057512    0.1400
42     H42     0.0211   -0.1667    2.1335 H        1 ZINC000000057512    0.1300
@<TRIPOS>BOND
1     1     2     1
2     1     22    1
3     1     23    1
4     1     24    1
5     2     21    ar
6     2     3     ar
7     3     4     ar
8     3     25    1
9     4     5     ar
10    4     26    1
11    5     6     1
12    5     20    ar
13    6     7     2
14    6     8     2
15    6     9     am
16    9     10    2
17    10    11    1
18    10    12    1
19    11    27    1
20    12    13    1
21    12    28    1
22    13    19    1
23    13    14    1
24    14    15    1
25    14    29    1
26    14    30    1
27    15    16    1
28    15    31    1
29    15    32    1
30    16    17    1
31    16    33    1
32    16    34    1
33    17    18    1
34    17    35    1
35    17    36    1
36    18    19    1
37    18    37    1
38    18    38    1
39    19    39    1
40    19    40    1
41    20    21    ar
42    20    41    1
43    21    42    1
@<TRIPOS>SUBSTRUCTURE
1   ZINC000000057512 1     RESIDUE    1   A     ZIN   1
