@<TRIPOS>MOLECULE
ZINC000000034157
27    27    1     0     0
SMALL
USER_CHARGES
@<TRIPOS>ATOM
1      C1     -0.0187    1.5258    0.0104 C.3      1 ZINC000000034157   -0.1800
2      C2      0.0021   -0.0041    0.0020 C.3      1 ZINC000000034157   -0.0100
3      H3     -1.0205   -0.3814    0.0098 H        1 ZINC000000034157    0.1400
4      N4      0.7126   -0.4907    1.1921 N.4      1 ZINC000000034157   -0.6300
5      H5      0.7263   -1.4996    1.1866 H        1 ZINC000000034157    0.4400
6      H6      1.6592   -0.1414    1.1850 H        1 ZINC000000034157    0.4300
7      H7      0.2403   -0.1653    2.0223 H        1 ZINC000000034157    0.4400
8      C8      0.7182   -0.4975   -1.2568 C.3      1 ZINC000000034157    0.1500
9      H9      1.7408   -0.1202   -1.2645 H        1 ZINC000000034157    0.1300
10     O10     0.0271   -0.0241   -2.4145 O.3      1 ZINC000000034157   -0.5200
11     C11     0.7387   -2.0043   -1.2651 C.ar     1 ZINC000000034157   -0.1600
12     C12    -0.3399   -2.7058   -1.7700 C.ar     1 ZINC000000034157   -0.0900
13     C13    -0.3262   -4.0885   -1.7794 C.ar     1 ZINC000000034157   -0.1200
14     C14     0.7704   -4.7736   -1.2825 C.ar     1 ZINC000000034157    0.1100
15     O15     0.7857   -6.1335   -1.2914 O.3      1 ZINC000000034157   -0.4800
16     C16     1.8569   -4.0672   -0.7744 C.ar     1 ZINC000000034157    0.0900
17     O17     2.9360   -4.7353   -0.2859 O.3      1 ZINC000000034157   -0.4900
18     C18     1.8389   -2.6821   -0.7727 C.ar     1 ZINC000000034157   -0.1400
19     H19     1.0039    1.9031    0.0027 H        1 ZINC000000034157    0.0800
20     H20    -0.5459    1.8868   -0.8726 H        1 ZINC000000034157    0.1100
21     H21    -0.5289    1.8773    0.9072 H        1 ZINC000000034157    0.0900
22     H22    -0.8911   -0.3216   -2.4734 H        1 ZINC000000034157    0.3900
23     H23    -1.1955   -2.1728   -2.1577 H        1 ZINC000000034157    0.1400
24     H24    -1.1706   -4.6342   -2.1738 H        1 ZINC000000034157    0.1500
25     H25     1.1596   -6.5173   -2.0963 H        1 ZINC000000034157    0.4000
26     H26     3.6172   -4.9191   -0.9471 H        1 ZINC000000034157    0.4000
27     H27     2.6805   -2.1316   -0.3791 H        1 ZINC000000034157    0.1400
@<TRIPOS>BOND
1     1     2     1
2     1     19    1
3     1     20    1
4     1     21    1
5     2     3     1
6     2     4     1
7     2     8     1
8     4     5     1
9     4     6     1
10    4     7     1
11    8     9     1
12    8     10    1
13    8     11    1
14    10    22    1
15    11    18    ar
16    11    12    ar
17    12    13    ar
18    12    23    1
19    13    14    ar
20    13    24    1
21    14    15    1
22    14    16    ar
23    15    25    1
24    16    17    1
25    16    18    ar
26    17    26    1
27    18    27    1
@<TRIPOS>SUBSTRUCTURE
1   ZINC000000034157 1     RESIDUE    1   A     ZIN   1
