@<TRIPOS>MOLECULE
ZINC000000968345
30   30    0    0    0
SMALL
USER_CHARGES
NO_NAME
@<TRIPOS>ATOM
1 C1       -0.0187     1.5258     0.0104 C.3    1 <0>      -0.1400
2 C2        0.0021    -0.0041     0.0020 C.3    1 <0>      -0.1300
3 C3        0.7182    -0.4975    -1.2568 C.3    1 <0>      -0.0600
4 H4        1.7103    -0.0491    -1.3098 H      1 <0>       0.0900
5 C5       -0.0892    -0.0968    -2.4931 C.3    1 <0>      -0.1600
6 C6        0.8493    -2.0210    -1.2049 C.3    1 <0>      -0.1600
7 C7        1.4952    -2.4847    -2.5121 C.3    1 <0>      -0.1000
8 C8        1.6425    -4.0075    -2.4960 C.3    1 <0>      -0.1600
9 C9        1.7883    -2.3756    -0.0674 C.2    1 <0>       0.5300
10 O10       2.9238    -1.9522    -0.0344 O.2    1 <0>      -0.5500
11 N11       1.3123    -3.1796     0.9069 N.pl3  1 <0>      -0.7200
12 C12       0.0618    -3.6547     0.8854 C.2    1 <0>       0.6700
13 O13      -0.2840    -4.3716     1.8032 O.2    1 <0>      -0.6000
14 N14      -0.8358    -3.3977    -0.0728 N.am   1 <0>      -0.7000
15 C15      -0.5458    -2.6125    -1.1319 C.2    1 <0>       0.5500
16 O16      -1.3694    -2.3888    -1.9929 O.2    1 <0>      -0.5300
17 H17       1.0039     1.9031     0.0027 H      1 <0>       0.0500
18 H18      -0.5459     1.8868    -0.8726 H      1 <0>       0.0500
19 H19      -0.5289     1.8773     0.9072 H      1 <0>       0.0500
20 H20       0.5293    -0.3651     0.8851 H      1 <0>       0.0700
21 H21      -1.0205    -0.3814     0.0098 H      1 <0>       0.0500
22 H22      -0.1826     0.9885    -2.5300 H      1 <0>       0.0500
23 H23       0.4210    -0.4484    -3.3899 H      1 <0>       0.0500
24 H24      -1.0813    -0.5452    -2.4401 H      1 <0>       0.0800
25 H25       0.8671    -2.1893    -3.3525 H      1 <0>       0.0700
26 H26       2.4785    -2.0256    -2.6144 H      1 <0>       0.0800
27 H27       2.1027    -4.3379    -3.4272 H      1 <0>       0.0600
28 H28       2.2706    -4.3029    -1.6556 H      1 <0>       0.0600
29 H29       0.6592    -4.4666    -2.3937 H      1 <0>       0.0500
30 H30      -1.7215    -3.7875    -0.0047 H      1 <0>       0.3900
@<TRIPOS>BOND
1    1    2 1
2    1   17 1
3    1   18 1
4    1   19 1
5    2    3 1
6    2   20 1
7    2   21 1
8    3    4 1
9    3    5 1
10    3    6 1
11    5   22 1
12    5   23 1
13    5   24 1
14    6   15 1
15    6    7 1
16    6    9 1
17    7    8 1
18    7   25 1
19    7   26 1
20    8   27 1
21    8   28 1
22    8   29 1
23    9   10 2
24    9   11 1
25   11   12 1
26   12   13 2
27   12   14 am
28   14   15 am
29   14   30 1
30   15   16 2
