@<TRIPOS>MOLECULE
ZINC000012414057
38    40    1     0     0
SMALL
USER_CHARGES
@<TRIPOS>ATOM
1      C1     -0.0178    1.4608    0.0101 C.3      1 ZINC000012414057    0.0500
2      N2      0.0021   -0.0041    0.0020 N.pl3    1 ZINC000012414057   -0.5500
3      C3      0.0241   -0.7433    1.2666 C.3      1 ZINC000012414057    0.0600
4      C4      0.0001   -0.6779   -1.1798 C.ar     1 ZINC000012414057    0.3400
5      C5      0.0133   -2.0867   -1.1839 C.ar     1 ZINC000012414057   -0.2000
6      C6      0.0115   -2.8058   -2.3282 C.ar     1 ZINC000012414057    0.0600
7      C7     -0.0037   -2.1437   -3.5859 C.ar     1 ZINC000012414057    0.0500
8      N8     -0.0056   -2.8271   -4.7040 N.2      1 ZINC000012414057   -0.3800
9      C9     -0.0177   -2.5179   -5.9772 C.2      1 ZINC000012414057    0.0500
10     C10    -0.0158   -3.5325   -6.9727 C.2      1 ZINC000012414057    0.0600
11     C11    -0.0288   -3.1973   -8.2819 C.2      1 ZINC000012414057   -0.2000
12     C12    -0.0445   -1.8571   -8.7160 C.2      1 ZINC000012414057    0.3400
13     N13    -0.0571   -1.5764  -10.0471 N.2      1 ZINC000012414057   -0.5500
14     C14    -0.0544   -2.6667  -11.0256 C.3      1 ZINC000012414057    0.0500
15     C15    -0.0735   -0.1839  -10.5020 C.3      1 ZINC000012414057    0.0500
16     C16    -0.0477   -0.8128   -7.7835 C.2      1 ZINC000012414057   -0.1900
17     C17    -0.0343   -1.1210   -6.4537 C.2      1 ZINC000012414057   -0.0300
18     S18    -0.0372    0.1043   -5.1624 S.3      1 ZINC000012414057    0.1700
19     C19    -0.0174   -0.6680   -3.5587 C.ar     1 ZINC000012414057   -0.0400
20     C20    -0.0210    0.0317   -2.3865 C.ar     1 ZINC000012414057   -0.1900
21     H21     1.0048    1.8381    0.0023 H        1 ZINC000012414057    0.0800
22     H22    -0.5450    1.8219   -0.8730 H        1 ZINC000012414057    0.0900
23     H23    -0.5280    1.8123    0.9069 H        1 ZINC000012414057    0.1000
24     H24     0.0224   -0.0395    2.0990 H        1 ZINC000012414057    0.1000
25     H25    -0.8567   -1.3823    1.3294 H        1 ZINC000012414057    0.0800
26     H26     0.9230   -1.3581    1.3125 H        1 ZINC000012414057    0.0800
27     H27     0.0257   -2.6104   -0.2394 H        1 ZINC000012414057    0.1600
28     H28     0.0220   -3.8850   -2.2870 H        1 ZINC000012414057    0.1600
29     H29    -0.0036   -4.5727   -6.6825 H        1 ZINC000012414057    0.1600
30     H30    -0.0267   -3.9845   -9.0214 H        1 ZINC000012414057    0.1600
31     H31    -1.0813   -2.9467  -11.2606 H        1 ZINC000012414057    0.0800
32     H32     0.4496   -2.3379  -11.9345 H        1 ZINC000012414057    0.1000
33     H33     0.4706   -3.5267  -10.6099 H        1 ZINC000012414057    0.0900
34     H34     0.9500    0.1710  -10.6225 H        1 ZINC000012414057    0.0800
35     H35    -0.5952   -0.1198  -11.4569 H        1 ZINC000012414057    0.1000
36     H36    -0.5876    0.4330   -9.7650 H        1 ZINC000012414057    0.0900
37     H37    -0.0597    0.2167   -8.1100 H        1 ZINC000012414057    0.1600
38     H38    -0.0365    1.1115   -2.3900 H        1 ZINC000012414057    0.1600
@<TRIPOS>BOND
1     1     2     1
2     1     21    1
3     1     22    1
4     1     23    1
5     2     3     1
6     2     4     1
7     3     24    1
8     3     25    1
9     3     26    1
10    4     20    ar
11    4     5     ar
12    5     6     ar
13    5     27    1
14    6     7     ar
15    6     28    1
16    7     19    ar
17    7     8     1
18    8     9     2
19    9     17    1
20    9     10    1
21    10    11    2
22    10    29    1
23    11    12    1
24    11    30    1
25    12    13    2
26    12    16    1
27    13    14    1
28    13    15    1
29    14    31    1
30    14    32    1
31    14    33    1
32    15    34    1
33    15    35    1
34    15    36    1
35    16    17    2
36    16    37    1
37    17    18    1
38    18    19    1
39    19    20    ar
40    20    38    1
@<TRIPOS>SUBSTRUCTURE
1   ZINC000012414057 1     RESIDUE    1   A     ZIN   1
