@<TRIPOS>MOLECULE
ZINC000242437514
81    83    1     0     0
SMALL
USER_CHARGES
@<TRIPOS>ATOM
1      C1     -1.4861   -8.3710    2.6844 C.3      1 ZINC000242437514   -0.0600
2      N2     -1.5126   -7.8237    1.3214 N.4      1 ZINC000242437514   -0.5100
3      H3     -1.8249   -8.5361    0.6789 H        1 ZINC000242437514    0.4300
4      H4     -2.1454   -7.0385    1.2865 H        1 ZINC000242437514    0.4200
5      C5     -0.1631   -7.3821    0.9448 C.3      1 ZINC000242437514    0.0300
6      H6      0.5371   -8.2083    1.0678 H        1 ZINC000242437514    0.1800
7      C7      0.2608   -6.2166    1.8408 C.3      1 ZINC000242437514   -0.1900
8      C8     -0.1644   -6.9278   -0.5162 C.3      1 ZINC000242437514    0.0700
9      H9     -0.5172   -7.7417   -1.1496 H        1 ZINC000242437514    0.1100
10     C10     1.2568   -6.5375   -0.9308 C.3      1 ZINC000242437514   -0.1700
11     C11     1.2370   -6.0273   -2.3749 C.3      1 ZINC000242437514   -0.1500
12     C12     0.2586   -4.8531   -2.4766 C.3      1 ZINC000242437514    0.0100
13     H13     0.1967   -4.5192   -3.5124 H        1 ZINC000242437514    0.1700
14     N14     0.7292   -3.7474   -1.6317 N.4      1 ZINC000242437514   -0.6400
15     H15     1.5385   -3.3202   -2.0568 H        1 ZINC000242437514    0.4500
16     H16    -0.0036   -3.0602   -1.5380 H        1 ZINC000242437514    0.4300
17     H17     0.9761   -4.1022   -0.7200 H        1 ZINC000242437514    0.4400
18     C18    -1.1239   -5.3084   -2.0024 C.3      1 ZINC000242437514    0.2200
19     H19    -1.4894   -6.1010   -2.6554 H        1 ZINC000242437514    0.1000
20     O20    -2.0290   -4.2033   -2.0417 O.3      1 ZINC000242437514   -0.3400
21     C21    -3.2507   -4.4273   -1.3349 C.3      1 ZINC000242437514    0.0800
22     H22    -3.0584   -5.0594   -0.4681 H        1 ZINC000242437514    0.1300
23     C23    -4.2546   -5.1200   -2.2586 C.3      1 ZINC000242437514    0.0100
24     H24    -5.1865   -5.2908   -1.7196 H        1 ZINC000242437514    0.1900
25     N25    -3.7035   -6.4068   -2.7037 N.4      1 ZINC000242437514   -0.6400
26     H26    -3.2814   -6.8812   -1.9195 H        1 ZINC000242437514    0.4300
27     H27    -4.4446   -6.9772   -3.0826 H        1 ZINC000242437514    0.4600
28     H28    -3.0058   -6.2461   -3.4147 H        1 ZINC000242437514    0.4300
29     C29    -4.5246   -4.2326   -3.4754 C.3      1 ZINC000242437514   -0.1700
30     C30    -5.0987   -2.8923   -3.0119 C.3      1 ZINC000242437514    0.0300
31     H31    -6.0305   -3.0631   -2.4728 H        1 ZINC000242437514    0.1800
32     N32    -5.3579   -2.0403   -4.1802 N.4      1 ZINC000242437514   -0.6300
33     H33    -6.0200   -2.4971   -4.7893 H        1 ZINC000242437514    0.4500
34     H34    -5.7365   -1.1564   -3.8745 H        1 ZINC000242437514    0.4500
35     H35    -4.4953   -1.8822   -4.6792 H        1 ZINC000242437514    0.4400
36     C36    -4.0948   -2.1996   -2.0882 C.3      1 ZINC000242437514    0.0300
37     H37    -4.5037   -1.2447   -1.7580 H        1 ZINC000242437514    0.1300
38     O38    -2.8731   -1.9757   -2.7949 O.3      1 ZINC000242437514   -0.3500
39     C39    -2.4791   -0.6033   -2.8543 C.3      1 ZINC000242437514    0.2200
40     H40    -2.3729   -0.2115   -1.8427 H        1 ZINC000242437514    0.1000
41     O41    -3.4729    0.1479   -3.5544 O.3      1 ZINC000242437514   -0.4100
42     C42    -3.1888    1.5452   -3.6493 C.3      1 ZINC000242437514    0.0500
43     C43    -1.8798    1.7473   -4.4170 C.3      1 ZINC000242437514    0.0800
44     C44    -1.5411    3.2385   -4.4665 C.3      1 ZINC000242437514   -0.2100
45     O45    -2.0240    1.2459   -5.7473 O.3      1 ZINC000242437514   -0.5600
46     C46    -0.7558    0.9906   -3.7024 C.3      1 ZINC000242437514    0.0500
47     H47    -0.6126    1.4069   -2.7053 H        1 ZINC000242437514    0.1700
48     N48     0.4890    1.1183   -4.4718 N.4      1 ZINC000242437514   -0.5000
49     H49     0.3913    0.6353   -5.3523 H        1 ZINC000242437514    0.4400
50     H50     0.6800    2.0942   -4.6429 H        1 ZINC000242437514    0.4400
51     C51     1.5981    0.5285   -3.7102 C.3      1 ZINC000242437514   -0.0500
52     C52    -1.1414   -0.4876   -3.5898 C.3      1 ZINC000242437514    0.0800
53     H53    -1.2362   -0.9163   -4.5874 H        1 ZINC000242437514    0.1200
54     O54    -0.1322   -1.1902   -2.8619 O.3      1 ZINC000242437514   -0.5500
55     C55    -3.8248   -3.0869   -0.8714 C.3      1 ZINC000242437514    0.1200
56     H56    -3.1096   -2.5934   -0.2134 H        1 ZINC000242437514    0.1100
57     O57    -5.0464   -3.3108   -0.1647 O.3      1 ZINC000242437514   -0.5400
58     O58    -1.0292   -5.7998   -0.6639 O.3      1 ZINC000242437514   -0.4100
59     H59    -0.8025   -9.2192    2.7221 H        1 ZINC000242437514    0.1400
60     H60    -1.1487   -7.6013    3.3785 H        1 ZINC000242437514    0.1300
61     H61    -2.4874   -8.6987    2.9639 H        1 ZINC000242437514    0.1400
62     H62     0.2166   -6.5263    2.8850 H        1 ZINC000242437514    0.1100
63     H63     1.2798   -5.9196    1.5928 H        1 ZINC000242437514    0.1100
64     H64    -0.4120   -5.3736    1.6831 H        1 ZINC000242437514    0.0900
65     H65     1.6255   -5.7515   -0.2717 H        1 ZINC000242437514    0.1000
66     H66     1.9087   -7.4083   -0.8610 H        1 ZINC000242437514    0.1400
67     H67     2.2359   -5.6952   -2.6580 H        1 ZINC000242437514    0.1300
68     H68     0.9155   -6.8285   -3.0404 H        1 ZINC000242437514    0.1300
69     H69    -3.5928   -4.0618   -4.0145 H        1 ZINC000242437514    0.1200
70     H70    -5.2398   -4.7261   -4.1335 H        1 ZINC000242437514    0.1300
71     H71    -4.0005    2.0462   -4.1767 H        1 ZINC000242437514    0.1500
72     H72    -3.0917    1.9652   -2.6482 H        1 ZINC000242437514    0.1000
73     H73    -1.4291    3.6196   -3.4515 H        1 ZINC000242437514    0.1000
74     H74    -0.6090    3.3815   -5.0132 H        1 ZINC000242437514    0.0800
75     H75    -2.3440    3.7769   -4.9702 H        1 ZINC000242437514    0.1100
76     H76    -2.7228    1.6783   -6.2570 H        1 ZINC000242437514    0.4200
77     H77     1.5245   -0.5585   -3.7440 H        1 ZINC000242437514    0.1300
78     H78     2.5462    0.8423   -4.1469 H        1 ZINC000242437514    0.1400
79     H79     1.5465    0.8641   -2.6744 H        1 ZINC000242437514    0.1300
80     H80    -0.2562   -2.1490   -2.8434 H        1 ZINC000242437514    0.3600
81     H81    -5.4672   -2.5027    0.1592 H        1 ZINC000242437514    0.4300
@<TRIPOS>BOND
1     1     2     1
2     1     59    1
3     1     60    1
4     1     61    1
5     2     3     1
6     2     4     1
7     2     5     1
8     5     6     1
9     5     7     1
10    5     8     1
11    7     62    1
12    7     63    1
13    7     64    1
14    8     9     1
15    8     58    1
16    8     10    1
17    10    11    1
18    10    65    1
19    10    66    1
20    11    12    1
21    11    67    1
22    11    68    1
23    12    13    1
24    12    14    1
25    12    18    1
26    14    15    1
27    14    16    1
28    14    17    1
29    18    19    1
30    18    20    1
31    18    58    1
32    20    21    1
33    21    22    1
34    21    55    1
35    21    23    1
36    23    24    1
37    23    25    1
38    23    29    1
39    25    26    1
40    25    27    1
41    25    28    1
42    29    30    1
43    29    69    1
44    29    70    1
45    30    31    1
46    30    32    1
47    30    36    1
48    32    33    1
49    32    34    1
50    32    35    1
51    36    37    1
52    36    38    1
53    36    55    1
54    38    39    1
55    39    40    1
56    39    52    1
57    39    41    1
58    41    42    1
59    42    43    1
60    42    71    1
61    42    72    1
62    43    44    1
63    43    45    1
64    43    46    1
65    44    73    1
66    44    74    1
67    44    75    1
68    45    76    1
69    46    47    1
70    46    48    1
71    46    52    1
72    48    49    1
73    48    50    1
74    48    51    1
75    51    77    1
76    51    78    1
77    51    79    1
78    52    53    1
79    52    54    1
80    54    80    1
81    55    56    1
82    55    57    1
83    57    81    1
@<TRIPOS>SUBSTRUCTURE
1   ZINC000242437514 1     RESIDUE    1   A     ZIN   1
