@<TRIPOS>MOLECULE
ZINC000018115268
34   34    0    0    0
SMALL
USER_CHARGES
NO_NAME
@<TRIPOS>ATOM
1 C1        1.2284    -2.6630    -2.0930 C.3    1 <0>       0.0400
2 N2        0.5867    -1.9449    -0.9890 N.2    1 <0>      -0.6300
3 C3        0.6498    -0.6451    -0.9336 C.2    1 <0>       0.6200
4 N4        0.1393     0.0243     0.1593 N.pl3  1 <0>      -0.5900
5 C5       -0.4278    -0.6703     1.1751 C.1    1 <0>       0.4300
6 N6       -0.9032    -1.2527     2.0267 N.1    1 <0>      -0.3900
7 N7        1.2251     0.0596    -1.9642 N.pl3  1 <0>      -0.7500
8 C8        1.3996     1.5099    -1.8521 C.3    1 <0>       0.1200
9 C9        2.1691     2.0266    -3.0695 C.3    1 <0>      -0.1100
10 S10       2.3852     3.8223    -2.9307 S.3    1 <0>      -0.2000
11 C11       3.3022     4.2407    -4.4389 C.3    1 <0>      -0.0400
12 C12       3.5640     5.7244    -4.4722 C.2    1 <0>       0.0600
13 C13       2.7680     6.6682    -5.0100 C.2    1 <0>       0.0600
14 C14       1.4456     6.4280    -5.6916 C.3    1 <0>      -0.1000
15 N15       3.3585     7.8593    -4.8328 N.pl3  1 <0>      -0.4800
16 H16       3.0007     8.7124    -5.1245 H      1 <0>       0.4700
17 C17       4.4902     7.6896    -4.2055 C.cat  1 <0>       0.3200
18 N18       4.6538     6.3724    -3.9565 N.pl3  1 <0>      -0.5000
19 H19       0.7355    -2.4041    -3.0301 H      1 <0>       0.0500
20 H20       2.2803    -2.3825    -2.1461 H      1 <0>       0.0400
21 H21       1.1468    -3.7368    -1.9241 H      1 <0>       0.0800
22 H22       0.1863     0.9923     0.2005 H      1 <0>       0.4300
23 H23       1.5155    -0.4033    -2.7656 H      1 <0>       0.4200
24 H24       0.4226     1.9912    -1.8087 H      1 <0>       0.0800
25 H25       1.9584     1.7395    -0.9448 H      1 <0>       0.0800
26 H26       3.1461     1.5453    -3.1128 H      1 <0>       0.1000
27 H27       1.6103     1.7969    -3.9767 H      1 <0>       0.1000
28 H28       4.2508     3.7040    -4.4480 H      1 <0>       0.1200
29 H29       2.7151     3.9557    -5.3119 H      1 <0>       0.1300
30 H30       0.6434     6.4757    -4.9552 H      1 <0>       0.1100
31 H31       1.2855     7.1912    -6.4532 H      1 <0>       0.1000
32 H32       1.4514     5.4435    -6.1594 H      1 <0>       0.1100
33 H33       5.1797     8.4731    -3.9279 H      1 <0>       0.2700
34 H34       5.4063     5.9616    -3.5026 H      1 <0>       0.4700
@<TRIPOS>BOND
1    1    2 1
2    1   19 1
3    1   20 1
4    1   21 1
5    2    3 2
6    3    4 1
7    3    7 1
8    4    5 1
9    4   22 1
10    5    6 3
11    7    8 1
12    7   23 1
13    8    9 1
14    8   24 1
15    8   25 1
16    9   10 1
17    9   26 1
18    9   27 1
19   10   11 1
20   11   12 1
21   11   28 1
22   11   29 1
23   12   18 1
24   12   13 2
25   13   14 1
26   13   15 1
27   14   30 1
28   14   31 1
29   14   32 1
30   15   16 1
31   15   17 ar
32   17   18 ar
33   17   33 1
34   18   34 1
