@<TRIPOS>MOLECULE
ZINC000100061056
18    18    1     0     0
SMALL
USER_CHARGES
@<TRIPOS>ATOM
1      C1      0.0218    1.4611    0.0065 C.3      1 ZINC000100061056    0.0600
2      N2      0.0212   -0.0039    0.0003 N.pl3    1 ZINC000100061056   -0.4000
3      C3     -0.0770   -0.6617   -1.1677 C.2      1 ZINC000100061056    0.1200
4      C4     -0.0797   -2.0221   -1.2052 C.2      1 ZINC000100061056   -0.1900
5      C5      0.0202   -2.7516   -0.0208 C.2      1 ZINC000100061056   -0.0100
6      C6      0.1212   -2.0735    1.1815 C.2      1 ZINC000100061056   -0.1700
7      C7      0.1256   -0.6799    1.1763 C.2      1 ZINC000100061056    0.2800
8      C8      0.2322    0.0574    2.4385 C.2      1 ZINC000100061056   -0.2800
9      N9      0.1205    1.3530    2.4461 N.2      1 ZINC000100061056   -0.3000
10     O10     0.2091    1.9657    3.4950 O.2      1 ZINC000100061056   -0.1900
11     H11     0.9176    1.8219    0.5119 H        1 ZINC000100061056    0.1100
12     H12     0.0104    1.8288   -1.0195 H        1 ZINC000100061056    0.0900
13     H13    -0.8623    1.8226    0.5318 H        1 ZINC000100061056    0.1100
14     H14    -0.1550   -0.1032   -2.0888 H        1 ZINC000100061056    0.1800
15     H15    -0.1596   -2.5364   -2.1515 H        1 ZINC000100061056    0.1600
16     H16     0.0184   -3.8314   -0.0415 H        1 ZINC000100061056    0.1500
17     H17     0.1996   -2.6173    2.1113 H        1 ZINC000100061056    0.1600
18     H18     0.4035   -0.4753    3.3622 H        1 ZINC000100061056    0.1200
@<TRIPOS>BOND
1     1     2     1
2     1     11    1
3     1     12    1
4     1     13    1
5     2     7     1
6     2     3     1
7     3     4     2
8     3     14    1
9     4     5     1
10    4     15    1
11    5     6     2
12    5     16    1
13    6     7     1
14    6     17    1
15    7     8     2
16    8     9     1
17    8     18    1
18    9     10    2
@<TRIPOS>SUBSTRUCTURE
1   ZINC000100061056 1     RESIDUE    1   A     ZIN   1
