@<TRIPOS>MOLECULE
ZINC000003820029
64   68    0    0    0
SMALL
USER_CHARGES
NO_NAME
@<TRIPOS>ATOM
1 C1       -0.3516     1.6120     0.1736 C.3    1 <0>      -0.0500
2 C2       -0.2356     0.1458     0.1134 C.1    1 <0>      -0.1200
3 C3       -0.1431    -1.0235     0.0653 C.1    1 <0>      -0.2300
4 C4       -0.0271    -2.4897     0.0051 C.3    1 <0>       0.2300
5 N5       -1.3653    -3.0859     0.0057 N.pl3  1 <0>      -0.4100
6 C6       -2.0560    -3.5275     1.0899 C.2    1 <0>       0.5000
7 N7       -1.6060    -3.4877     2.3896 N.pl3  1 <0>      -0.6100
8 C8       -0.8256    -4.6012     2.9461 C.3    1 <0>       0.1300
9 C9       -1.4933    -5.0721     4.2420 C.3    1 <0>      -0.1300
10 C10      -1.6540    -3.8816     5.1901 C.3    1 <0>      -0.1400
11 C11      -2.5521    -2.8268     4.5397 C.3    1 <0>       0.0100
12 H12      -3.5224    -3.2670     4.3096 H      1 <0>       0.1500
13 N13      -2.7320    -1.6989     5.4635 N.4    1 <0>      -0.6300
14 H14      -1.8337    -1.2911     5.6753 H      1 <0>       0.4300
15 H15      -3.3241    -1.0038     5.0342 H      1 <0>       0.4400
16 H16      -3.1617    -2.0271     6.3153 H      1 <0>       0.4400
17 C17      -1.8916    -2.3280     3.2455 C.3    1 <0>       0.1300
18 N18      -3.2234    -3.9997     0.7025 N.2    1 <0>      -0.4800
19 C19      -3.3427    -3.8893    -0.6216 C.2    1 <0>       0.3300
20 C20      -2.1758    -3.3036    -1.1005 C.2    1 <0>      -0.1300
21 C21      -2.0403    -3.0720    -2.4807 C.2    1 <0>       0.5900
22 O22      -1.0263    -2.5604    -2.9226 O.2    1 <0>      -0.4800
23 N23      -3.0443    -3.4226    -3.3107 N.am   1 <0>      -0.5400
24 C24      -2.9077    -3.1833    -4.7496 C.3    1 <0>       0.1900
25 C25      -2.2802    -4.3882    -5.4019 C.ar   1 <0>       0.2900
26 N26      -0.9598    -4.4424    -5.4954 N.ar   1 <0>      -0.5000
27 C27      -0.3479    -5.4676    -6.0537 C.ar   1 <0>       0.2200
28 C28       1.1554    -5.5109    -6.1501 C.3    1 <0>      -0.1100
29 C29      -1.1327    -6.5202    -6.5567 C.ar   1 <0>      -0.1600
30 C30      -0.5653    -7.6494    -7.1658 C.ar   1 <0>      -0.0800
31 C31      -1.3774    -8.6377    -7.6340 C.ar   1 <0>      -0.1100
32 C32      -2.7628    -8.5430    -7.5171 C.ar   1 <0>      -0.0800
33 C33      -3.3470    -7.4607    -6.9318 C.ar   1 <0>      -0.1000
34 C34      -2.5434    -6.4230    -6.4367 C.ar   1 <0>       0.1600
35 N35      -3.0647    -5.3401    -5.8476 N.ar   1 <0>      -0.4800
36 C36      -4.1680    -3.9886    -2.8376 C.2    1 <0>       0.7000
37 O37      -5.0522    -4.2919    -3.6153 O.2    1 <0>      -0.5000
38 N38      -4.3409    -4.2226    -1.5230 N.am   1 <0>      -0.5100
39 C39      -5.5802    -4.8420    -1.0467 C.3    1 <0>       0.0900
40 H40       0.6440     2.0556     0.1732 H      1 <0>       0.0900
41 H41      -0.9085     1.9683    -0.6930 H      1 <0>       0.0900
42 H42      -0.8763     1.8978     1.0853 H      1 <0>       0.0800
43 H43       0.4976    -2.7755    -0.9066 H      1 <0>       0.1300
44 H44       0.5298    -2.8460     0.8717 H      1 <0>       0.1200
45 H45      -0.7985    -5.4223     2.2298 H      1 <0>       0.0900
46 H46       0.1893    -4.2656     3.1591 H      1 <0>       0.0800
47 H47      -2.4736    -5.4911     4.0148 H      1 <0>       0.0900
48 H48      -0.8727    -5.8330     4.7153 H      1 <0>       0.1000
49 H49      -2.1065    -4.2186     6.1228 H      1 <0>       0.0900
50 H50      -0.6758    -3.4477     5.3974 H      1 <0>       0.0900
51 H51      -0.9647    -1.8072     3.4855 H      1 <0>       0.0900
52 H52      -2.5700    -1.6507     2.7266 H      1 <0>       0.1000
53 H53      -3.8919    -3.0065    -5.1836 H      1 <0>       0.1300
54 H54      -2.2759    -2.3106    -4.9144 H      1 <0>       0.1300
55 H55       1.5629    -5.9915    -5.2606 H      1 <0>       0.0900
56 H56       1.4467    -6.0771    -7.0347 H      1 <0>       0.0900
57 H57       1.5441    -4.4952    -6.2246 H      1 <0>       0.0900
58 H58       0.5070    -7.7342    -7.2630 H      1 <0>       0.1400
59 H59      -0.9412    -9.5073    -8.1030 H      1 <0>       0.1400
60 H60      -3.3835    -9.3408    -7.8972 H      1 <0>       0.1400
61 H61      -4.4222    -7.4020    -6.8491 H      1 <0>       0.1400
62 H62      -6.2365    -5.0399    -1.8941 H      1 <0>       0.1100
63 H63      -5.3470    -5.7790    -0.5411 H      1 <0>       0.0800
64 H64      -6.0790    -4.1678    -0.3505 H      1 <0>       0.0800
@<TRIPOS>BOND
1    1    2 1
2    1   40 1
3    1   41 1
4    1   42 1
5    2    3 3
6    3    4 1
7    4    5 1
8    4   43 1
9    4   44 1
10    5   20 1
11    5    6 1
12    6    7 1
13    6   18 2
14    7   17 1
15    7    8 1
16    8    9 1
17    8   45 1
18    8   46 1
19    9   10 1
20    9   47 1
21    9   48 1
22   10   11 1
23   10   49 1
24   10   50 1
25   11   12 1
26   11   13 1
27   11   17 1
28   13   14 1
29   13   15 1
30   13   16 1
31   17   51 1
32   17   52 1
33   18   19 1
34   19   38 1
35   19   20 2
36   20   21 1
37   21   22 2
38   21   23 am
39   23   24 1
40   23   36 am
41   24   25 1
42   24   53 1
43   24   54 1
44   25   35 ar
45   25   26 ar
46   26   27 ar
47   27   28 1
48   27   29 ar
49   28   55 1
50   28   56 1
51   28   57 1
52   29   34 ar
53   29   30 ar
54   30   31 ar
55   30   58 1
56   31   32 ar
57   31   59 1
58   32   33 ar
59   32   60 1
60   33   34 ar
61   33   61 1
62   34   35 ar
63   36   37 2
64   36   38 am
65   38   39 1
66   39   62 1
67   39   63 1
68   39   64 1
