@<TRIPOS>MOLECULE
ZINC000000005151
48    50    1     0     0
SMALL
USER_CHARGES
@<TRIPOS>ATOM
1      C1     -0.1590    1.5035   -0.0064 C.3      1 ZINC000000005151   -0.1600
2      C2     -0.1142   -0.0257   -0.0293 C.3      1 ZINC000000005151   -0.1500
3      C3      0.6423   -0.4952   -1.2736 C.3      1 ZINC000000005151   -0.0200
4      N4      0.8045   -1.9544   -1.2265 N.4      1 ZINC000000005151   -0.3800
5      H5      1.2580   -2.2148   -0.3635 H        1 ZINC000000005151    0.4200
6      C6     -0.5148   -2.5964   -1.2995 C.3      1 ZINC000000005151   -0.0200
7      C7     -1.1498   -2.3035   -2.6604 C.3      1 ZINC000000005151   -0.0600
8      C8     -2.5553   -2.8466   -2.6861 C.2      1 ZINC000000005151   -0.2200
9      C9     -3.6474   -2.1711   -2.3249 C.2      1 ZINC000000005151   -0.1100
10     C10    -4.8327   -2.8777   -2.4335 C.2      1 ZINC000000005151   -0.1400
11     C11    -4.7033   -4.1270   -2.8828 C.2      1 ZINC000000005151   -0.1900
12     S12    -3.0075   -4.4654   -3.2041 S.3      1 ZINC000000005151    0.1200
13     C13     1.6259   -2.3927   -2.3628 C.3      1 ZINC000000005151    0.0200
14     H14     1.1153   -2.1581   -3.2968 H        1 ZINC000000005151    0.1400
15     C15     1.8682   -3.9040   -2.2723 C.3      1 ZINC000000005151   -0.1400
16     C16     2.5129   -4.3675   -3.5770 C.3      1 ZINC000000005151   -0.0700
17     C17     3.7076   -3.5129   -3.9103 C.ar     1 ZINC000000005151   -0.1100
18     C18     4.6243   -4.0108   -4.8343 C.ar     1 ZINC000000005151    0.1100
19     O19     4.4221   -5.2322   -5.3950 O.3      1 ZINC000000005151   -0.4900
20     C20     5.7395   -3.2688   -5.1853 C.ar     1 ZINC000000005151   -0.1300
21     C21     5.9428   -2.0271   -4.6153 C.ar     1 ZINC000000005151   -0.0900
22     C22     5.0358   -1.5357   -3.6987 C.ar     1 ZINC000000005151   -0.1200
23     C23     3.9171   -2.2776   -3.3412 C.ar     1 ZINC000000005151   -0.0800
24     C24     2.9781   -1.6838   -2.3237 C.3      1 ZINC000000005151   -0.0900
25     H25     0.8574    1.8964    0.0166 H        1 ZINC000000005151    0.0700
26     H26    -0.6684    1.8654   -0.8995 H        1 ZINC000000005151    0.0700
27     H27    -0.6979    1.8379    0.8801 H        1 ZINC000000005151    0.0800
28     H28     0.3952   -0.3877    0.8637 H        1 ZINC000000005151    0.0900
29     H29    -1.1306   -0.4187   -0.0523 H        1 ZINC000000005151    0.0900
30     H30     0.0797   -0.2207   -2.1659 H        1 ZINC000000005151    0.1300
31     H31     1.6235   -0.0213   -1.3026 H        1 ZINC000000005151    0.1300
32     H32    -0.4021   -3.6734   -1.1754 H        1 ZINC000000005151    0.1300
33     H33    -1.1539   -2.2043   -0.5084 H        1 ZINC000000005151    0.1400
34     H34    -1.1734   -1.2264   -2.8261 H        1 ZINC000000005151    0.1000
35     H35    -0.5621   -2.7791   -3.4455 H        1 ZINC000000005151    0.1000
36     H36    -3.6096   -1.1504   -1.9741 H        1 ZINC000000005151    0.1400
37     H37    -5.7898   -2.4501   -2.1737 H        1 ZINC000000005151    0.1500
38     H38    -5.5159   -4.8229   -3.0302 H        1 ZINC000000005151    0.1700
39     H39     2.5342   -4.1196   -1.4368 H        1 ZINC000000005151    0.0900
40     H40     0.9189   -4.4199   -2.1283 H        1 ZINC000000005151    0.0900
41     H41     2.8309   -5.4048   -3.4721 H        1 ZINC000000005151    0.1000
42     H42     1.7834   -4.2958   -4.3837 H        1 ZINC000000005151    0.0800
43     H43     3.9070   -5.2090   -6.2131 H        1 ZINC000000005151    0.4000
44     H44     6.4476   -3.6595   -5.9012 H        1 ZINC000000005151    0.1400
45     H45     6.8095   -1.4425   -4.8862 H        1 ZINC000000005151    0.1400
46     H46     5.1971   -0.5644   -3.2549 H        1 ZINC000000005151    0.1300
47     H47     2.8361   -0.6250   -2.5406 H        1 ZINC000000005151    0.1000
48     H48     3.4111   -1.7914   -1.3292 H        1 ZINC000000005151    0.1000
@<TRIPOS>BOND
1     1     2     1
2     1     25    1
3     1     26    1
4     1     27    1
5     2     3     1
6     2     28    1
7     2     29    1
8     3     4     1
9     3     30    1
10    3     31    1
11    4     5     1
12    4     6     1
13    4     13    1
14    6     7     1
15    6     32    1
16    6     33    1
17    7     8     1
18    7     34    1
19    7     35    1
20    8     12    1
21    8     9     2
22    9     10    1
23    9     36    1
24    10    11    2
25    10    37    1
26    11    12    1
27    11    38    1
28    13    14    1
29    13    24    1
30    13    15    1
31    15    16    1
32    15    39    1
33    15    40    1
34    16    17    1
35    16    41    1
36    16    42    1
37    17    23    ar
38    17    18    ar
39    18    19    1
40    18    20    ar
41    19    43    1
42    20    21    ar
43    20    44    1
44    21    22    ar
45    21    45    1
46    22    23    ar
47    22    46    1
48    23    24    1
49    24    47    1
50    24    48    1
@<TRIPOS>SUBSTRUCTURE
1   ZINC000000005151 1     RESIDUE    1   A     ZIN   1
