@<TRIPOS>MOLECULE
ZINC000000056645
39   40    0    0    0
SMALL
USER_CHARGES
NO_NAME
@<TRIPOS>ATOM
1 C1       -0.0187     1.5258     0.0104 C.3    1 <0>      -0.1900
2 C2        0.0021    -0.0041     0.0020 C.3    1 <0>       0.0200
3 C3        0.7182    -0.4975    -1.2568 C.3    1 <0>      -0.1900
4 N4        0.7126    -0.4907     1.1921 N.4    1 <0>      -0.5000
5 H5        0.7982    -1.4950     1.1455 H      1 <0>       0.4300
6 H6        1.6317    -0.0761     1.2281 H      1 <0>       0.4300
7 C7       -0.0398    -0.1189     2.3978 C.3    1 <0>      -0.0500
8 C8        0.7001    -0.6257     3.6373 C.3    1 <0>       0.0900
9 H9        1.6931    -0.1778     3.6761 H      1 <0>       0.1300
10 O10       0.8214    -2.0480     3.5713 O.3    1 <0>      -0.5400
11 C11      -0.0835    -0.2384     4.8930 C.3    1 <0>       0.0300
12 O12       0.6635    -0.6084     6.0537 O.3    1 <0>      -0.3000
13 C13       0.1045    -0.3323     7.2610 C.ar   1 <0>       0.1700
14 C14       0.7805    -0.6607     8.4423 C.ar   1 <0>      -0.1300
15 C15       2.0702    -1.2908     8.7349 C.2    1 <0>      -0.1900
16 C16       2.1863    -1.3446    10.0708 C.2    1 <0>       0.0500
17 N17       1.0753    -0.8000    10.6575 N.pl3  1 <0>      -0.5900
18 C18       0.1963    -0.3722     9.6878 C.ar   1 <0>       0.1300
19 C19      -1.0535     0.2387     9.7327 C.ar   1 <0>      -0.1600
20 C20      -1.7084     0.5554     8.5629 C.ar   1 <0>      -0.0600
21 C21      -1.1323     0.2796     7.3311 C.ar   1 <0>      -0.2400
22 H22       1.0039     1.9031     0.0027 H      1 <0>       0.0800
23 H23      -0.5459     1.8868    -0.8726 H      1 <0>       0.1100
24 H24      -0.5289     1.8773     0.9072 H      1 <0>       0.0800
25 H25      -1.0205    -0.3814     0.0098 H      1 <0>       0.1400
26 H26       1.7408    -0.1202    -1.2645 H      1 <0>       0.0800
27 H27       0.7330    -1.5874    -1.2628 H      1 <0>       0.0800
28 H28       0.1910    -0.1364    -2.1398 H      1 <0>       0.1100
29 H29      -0.1324     0.9660     2.4481 H      1 <0>       0.1500
30 H30      -1.0328    -0.5668     2.3589 H      1 <0>       0.1400
31 H31      -0.0252    -2.5137     3.5341 H      1 <0>       0.3900
32 H32      -0.2529     0.8383     4.8979 H      1 <0>       0.0800
33 H33      -1.0422    -0.7571     4.8973 H      1 <0>       0.0800
34 H34       2.7906    -1.6451     8.0125 H      1 <0>       0.1500
35 H35       3.0303    -1.7566    10.6040 H      1 <0>       0.1800
36 H36       0.9295    -0.7262    11.6136 H      1 <0>       0.4200
37 H37      -1.5102     0.4642    10.6851 H      1 <0>       0.1300
38 H38      -2.6781     1.0290     8.6049 H      1 <0>       0.1300
39 H39      -1.6582     0.5343     6.4228 H      1 <0>       0.1200
@<TRIPOS>BOND
1    1    2 1
2    1   22 1
3    1   23 1
4    1   24 1
5    2    3 1
6    2    4 1
7    2   25 1
8    3   26 1
9    3   27 1
10    3   28 1
11    4    5 1
12    4    6 1
13    4    7 1
14    7    8 1
15    7   29 1
16    7   30 1
17    8    9 1
18    8   10 1
19    8   11 1
20   10   31 1
21   11   12 1
22   11   32 1
23   11   33 1
24   12   13 1
25   13   21 ar
26   13   14 ar
27   14   18 ar
28   14   15 1
29   15   16 2
30   15   34 1
31   16   17 1
32   16   35 1
33   17   18 1
34   17   36 1
35   18   19 ar
36   19   20 ar
37   19   37 1
38   20   21 ar
39   20   38 1
40   21   39 1
