@<TRIPOS>MOLECULE
ZINC000000005423
37    38    1     0     0
SMALL
USER_CHARGES
@<TRIPOS>ATOM
1      C1     -0.0184    1.5028    0.0103 C.3      1 ZINC000000005423   -0.0700
2      C2      0.0021   -0.0041    0.0020 C.2      1 ZINC000000005423    0.0800
3      C3      0.0066   -0.7449   -1.1527 C.2      1 ZINC000000005423   -0.2400
4      C4     -0.0063   -0.2330   -2.4738 C.2      1 ZINC000000005423    0.5400
5      O5     -0.0232    0.9775   -2.6615 O.co2    1 ZINC000000005423   -0.6600
6      O6     -0.0005   -1.0010   -3.4284 O.co2    1 ZINC000000005423   -0.6800
7      S7      0.0319   -2.4471   -0.6983 S.3      1 ZINC000000005423    0.1800
8      C8      0.0340   -2.0182    0.9562 C.2      1 ZINC000000005423    0.0200
9      C9      0.0529   -2.9816    2.0753 C.ar     1 ZINC000000005423   -0.0400
10     C10     0.0477   -2.5201    3.3955 C.ar     1 ZINC000000005423   -0.0100
11     C11     0.0654   -3.4145    4.4434 C.ar     1 ZINC000000005423   -0.2100
12     C12     0.0884   -4.7801    4.1967 C.ar     1 ZINC000000005423    0.1800
13     O13     0.1057   -5.6559    5.2319 O.3      1 ZINC000000005423   -0.3100
14     C14     0.0989   -5.1030    6.5496 C.3      1 ZINC000000005423    0.0600
15     C15     0.1206   -6.2356    7.5781 C.3      1 ZINC000000005423   -0.1000
16     C16     0.2391   -5.6452    8.9846 C.3      1 ZINC000000005423   -0.1500
17     C17    -1.1732   -7.0454    7.4722 C.3      1 ZINC000000005423   -0.1500
18     C18     0.0934   -5.2547    2.8758 C.ar     1 ZINC000000005423   -0.0600
19     C19     0.1162   -6.6632    2.6184 C.1      1 ZINC000000005423    0.2700
20     N20     0.1343   -7.7805    2.4141 N.1      1 ZINC000000005423   -0.4200
21     C21     0.0702   -4.3504    1.8160 C.ar     1 ZINC000000005423   -0.0200
22     N22     0.0226   -0.7204    1.0923 N.2      1 ZINC000000005423   -0.4600
23     H23     1.0042    1.8801    0.0026 H        1 ZINC000000005423    0.0700
24     H24    -0.5455    1.8639   -0.8728 H        1 ZINC000000005423    0.1000
25     H25    -0.5286    1.8543    0.9071 H        1 ZINC000000005423    0.0600
26     H26     0.0302   -1.4587    3.5943 H        1 ZINC000000005423    0.1500
27     H27     0.0616   -3.0515    5.4605 H        1 ZINC000000005423    0.1400
28     H28     0.9784   -4.4733    6.6840 H        1 ZINC000000005423    0.0700
29     H29    -0.8013   -4.5041    6.6877 H        1 ZINC000000005423    0.0700
30     H30     0.9734   -6.8862    7.3841 H        1 ZINC000000005423    0.0800
31     H31    -0.6137   -4.9946    9.1785 H        1 ZINC000000005423    0.0600
32     H32     0.2545   -6.4520    9.7172 H        1 ZINC000000005423    0.0600
33     H33     1.1608   -5.0682    9.0599 H        1 ZINC000000005423    0.0600
34     H34    -2.0260   -6.3948    7.6662 H        1 ZINC000000005423    0.0600
35     H35    -1.2576   -7.4661    6.4702 H        1 ZINC000000005423    0.0600
36     H36    -1.1577   -7.8523    8.2049 H        1 ZINC000000005423    0.0600
37     H37     0.0739   -4.7091    0.7973 H        1 ZINC000000005423    0.1400
@<TRIPOS>BOND
1     1     2     1
2     1     23    1
3     1     24    1
4     1     25    1
5     2     22    1
6     2     3     2
7     3     4     1
8     3     7     1
9     4     5     ar
10    4     6     ar
11    7     8     1
12    8     9     1
13    8     22    2
14    9     21    ar
15    9     10    ar
16    10    11    ar
17    10    26    1
18    11    12    ar
19    11    27    1
20    12    13    1
21    12    18    ar
22    13    14    1
23    14    15    1
24    14    28    1
25    14    29    1
26    15    16    1
27    15    17    1
28    15    30    1
29    16    31    1
30    16    32    1
31    16    33    1
32    17    34    1
33    17    35    1
34    17    36    1
35    18    19    1
36    18    21    ar
37    19    20    3
38    21    37    1
@<TRIPOS>SUBSTRUCTURE
1   ZINC000000005423 1     RESIDUE    1   A     ZIN   1
