@<TRIPOS>MOLECULE
ZINC000000001958
25    26    1     0     0
SMALL
USER_CHARGES
@<TRIPOS>ATOM
1      C1      0.2126    1.1020    1.4495 C.3      1 ZINC000000001958   -0.1000
2      C2      0.1124   -0.1956    0.6897 C.2      1 ZINC000000001958   -0.1900
3      C3     -1.0522   -0.8850    0.6773 C.2      1 ZINC000000001958    0.1300
4      N4     -1.1573   -2.0567   -0.0041 N.am     1 ZINC000000001958   -0.4500
5      C5     -2.3728   -2.7517   -0.0026 C.ar     1 ZINC000000001958    0.1000
6      C6     -2.6325   -3.6972    0.9809 C.ar     1 ZINC000000001958   -0.1000
7      C7     -3.8324   -4.3811    0.9796 C.ar     1 ZINC000000001958   -0.1100
8      C8     -4.7746   -4.1253    0.0003 C.ar     1 ZINC000000001958   -0.1000
9      C9     -4.5189   -3.1848   -0.9807 C.ar     1 ZINC000000001958   -0.1100
10     C10    -3.3235   -2.4931   -0.9813 C.ar     1 ZINC000000001958   -0.1000
11     C11    -0.1057   -2.5559   -0.6809 C.2      1 ZINC000000001958    0.5100
12     O12    -0.2155   -3.6089   -1.2885 O.2      1 ZINC000000001958   -0.5400
13     C13     1.1177   -1.8654   -0.6885 C.2      1 ZINC000000001958   -0.2400
14     C14     1.2239   -0.6867   -0.0097 C.2      1 ZINC000000001958   -0.0100
15     H15     1.2172    1.5105    1.3401 H        1 ZINC000000001958    0.0700
16     H16    -0.5135    1.8119    1.0535 H        1 ZINC000000001958    0.0700
17     H17     0.0065    0.9221    2.5046 H        1 ZINC000000001958    0.0700
18     H18    -1.9066   -0.5007    1.2146 H        1 ZINC000000001958    0.1600
19     H19    -1.8968   -3.8977    1.7457 H        1 ZINC000000001958    0.1300
20     H20    -4.0348   -5.1168    1.7439 H        1 ZINC000000001958    0.1300
21     H21    -5.7122   -4.6615    0.0014 H        1 ZINC000000001958    0.1300
22     H22    -5.2567   -2.9876   -1.7443 H        1 ZINC000000001958    0.1300
23     H23    -3.1245   -1.7584   -1.7475 H        1 ZINC000000001958    0.1300
24     H24     1.9643   -2.2616   -1.2294 H        1 ZINC000000001958    0.1500
25     H25     2.1565   -0.1420   -0.0044 H        1 ZINC000000001958    0.1400
@<TRIPOS>BOND
1     1     2     1
2     1     15    1
3     1     16    1
4     1     17    1
5     2     14    1
6     2     3     2
7     3     4     1
8     3     18    1
9     4     5     1
10    4     11    am
11    5     10    ar
12    5     6     ar
13    6     7     ar
14    6     19    1
15    7     8     ar
16    7     20    1
17    8     9     ar
18    8     21    1
19    9     10    ar
20    9     22    1
21    10    23    1
22    11    12    2
23    11    13    1
24    13    14    2
25    13    24    1
26    14    25    1
@<TRIPOS>SUBSTRUCTURE
1   ZINC000000001958 1     RESIDUE    1   A     ZIN   1
