@<TRIPOS>MOLECULE
ZINC000003581355
22    21    1     0     0
SMALL
USER_CHARGES
@<TRIPOS>ATOM
1      C1     -0.0187    1.5258    0.0104 C.3      1 ZINC000003581355   -0.1600
2      C2      0.0021   -0.0041    0.0020 C.3      1 ZINC000003581355   -0.1300
3      C3      0.7182   -0.4975   -1.2568 C.3      1 ZINC000003581355   -0.0900
4      H4      1.7103   -0.0491   -1.3098 H        1 ZINC000003581355    0.0900
5      C5     -0.0892   -0.0968   -2.4931 C.3      1 ZINC000003581355   -0.1500
6      C6      0.8493   -2.0210   -1.2049 C.3      1 ZINC000003581355   -0.0500
7      H7     -0.1428   -2.4694   -1.1520 H        1 ZINC000003581355    0.1300
8      N8      1.6245   -2.4057   -0.0179 N.4      1 ZINC000003581355   -0.6200
9      H9      1.1522   -2.0803    0.8122 H        1 ZINC000003581355    0.4100
10     H10     1.7109   -3.4104    0.0162 H        1 ZINC000003581355    0.4300
11     H11     2.5429   -1.9906   -0.0670 H        1 ZINC000003581355    0.4300
12     C12     1.5546   -2.5070   -2.4448 C.2      1 ZINC000003581355    0.4900
13     O13     2.7697   -2.6069   -2.4553 O.co2    1 ZINC000003581355   -0.6700
14     O14     0.9102   -2.8003   -3.4374 O.co2    1 ZINC000003581355   -0.6300
15     H15     1.0039    1.9031    0.0027 H        1 ZINC000003581355    0.0600
16     H16    -0.5459    1.8868   -0.8726 H        1 ZINC000003581355    0.0700
17     H17    -0.5289    1.8773    0.9072 H        1 ZINC000003581355    0.0600
18     H18     0.5293   -0.3651    0.8851 H        1 ZINC000003581355    0.0500
19     H19    -1.0205   -0.3814    0.0098 H        1 ZINC000003581355    0.0700
20     H20    -0.1826    0.9885   -2.5300 H        1 ZINC000003581355    0.0700
21     H21     0.4210   -0.4484   -3.3899 H        1 ZINC000003581355    0.0800
22     H22    -1.0813   -0.5452   -2.4401 H        1 ZINC000003581355    0.0600
@<TRIPOS>BOND
1     1     2     1
2     1     15    1
3     1     16    1
4     1     17    1
5     2     3     1
6     2     18    1
7     2     19    1
8     3     4     1
9     3     5     1
10    3     6     1
11    5     20    1
12    5     21    1
13    5     22    1
14    6     7     1
15    6     8     1
16    6     12    1
17    8     9     1
18    8     10    1
19    8     11    1
20    12    13    ar
21    12    14    ar
@<TRIPOS>SUBSTRUCTURE
1   ZINC000003581355 1     RESIDUE    1   A     ZIN   1
