@<TRIPOS>MOLECULE
ZINC000003008621
25    24    1     0     0
SMALL
USER_CHARGES
@<TRIPOS>ATOM
1      C1     -0.0187    1.5258    0.0104 C.3      1 ZINC000003008621   -0.1500
2      C2      0.0021   -0.0041    0.0020 C.3      1 ZINC000003008621   -0.1200
3      C3     -1.4333   -0.5336    0.0129 C.3      1 ZINC000003008621   -0.0900
4      C4     -1.4126   -2.0635    0.0045 C.3      1 ZINC000003008621   -0.1600
5      C5     -2.8413   -2.5937    0.1410 C.3      1 ZINC000003008621   -0.0900
6      C6     -2.8102   -4.1189    0.2579 C.3      1 ZINC000003008621   -0.1200
7      C7     -4.2389   -4.6491    0.3944 C.3      1 ZINC000003008621   -0.1500
8      C8     -0.8177   -2.5507   -1.2916 C.2      1 ZINC000003008621    0.5000
9      O9      0.1892   -3.2381   -1.2799 O.co2    1 ZINC000003008621   -0.7100
10     O10    -1.3432   -2.2574   -2.3519 O.co2    1 ZINC000003008621   -0.7000
11     H11     1.0039    1.9031    0.0027 H        1 ZINC000003008621    0.0500
12     H12    -0.5459    1.8868   -0.8726 H        1 ZINC000003008621    0.0500
13     H13    -0.5289    1.8773    0.9072 H        1 ZINC000003008621    0.0500
14     H14     0.5123   -0.3556   -0.8948 H        1 ZINC000003008621    0.0700
15     H15     0.5293   -0.3651    0.8851 H        1 ZINC000003008621    0.0500
16     H16    -1.9435   -0.1821    0.9097 H        1 ZINC000003008621    0.0400
17     H17    -1.9605   -0.1726   -0.8702 H        1 ZINC000003008621    0.0600
18     H18    -0.8102   -2.4233    0.8386 H        1 ZINC000003008621    0.0600
19     H19    -3.3022   -2.1702    1.0333 H        1 ZINC000003008621    0.0400
20     H20    -3.4202   -2.3083   -0.7374 H        1 ZINC000003008621    0.0600
21     H21    -2.3493   -4.5424   -0.6344 H        1 ZINC000003008621    0.0700
22     H22    -2.2313   -4.4042    1.1363 H        1 ZINC000003008621    0.0500
23     H23    -4.2168   -5.7356    0.4777 H        1 ZINC000003008621    0.0500
24     H24    -4.6999   -4.2256    1.2868 H        1 ZINC000003008621    0.0500
25     H25    -4.8179   -4.3637   -0.4839 H        1 ZINC000003008621    0.0500
@<TRIPOS>BOND
1     1     2     1
2     1     11    1
3     1     12    1
4     1     13    1
5     2     3     1
6     2     14    1
7     2     15    1
8     3     4     1
9     3     16    1
10    3     17    1
11    4     5     1
12    4     8     1
13    4     18    1
14    5     6     1
15    5     19    1
16    5     20    1
17    6     7     1
18    6     21    1
19    6     22    1
20    7     23    1
21    7     24    1
22    7     25    1
23    8     9     ar
24    8     10    ar
@<TRIPOS>SUBSTRUCTURE
1   ZINC000003008621 1     RESIDUE    1   A     ZIN   1
