@<TRIPOS>MOLECULE
ZINC000038140873
34   35    0    0    0
SMALL
USER_CHARGES
NO_NAME
@<TRIPOS>ATOM
1 C1       -0.7390     1.3244    -0.3901 C.3    1 <0>      -0.0600
2 N2       -0.3275    -0.0700    -0.1799 N.4    1 <0>      -0.5100
3 H3        0.2132    -0.1368     0.6693 H      1 <0>       0.4300
4 H4       -1.1465    -0.6546    -0.1040 H      1 <0>       0.4300
5 C5        0.4889    -0.5163    -1.3167 C.3    1 <0>       0.0500
6 C6        1.7677     0.3181    -1.4136 C.3    1 <0>      -0.1700
7 C7       -0.3268    -0.4215    -2.6422 C.3    1 <0>      -0.1000
8 H8       -0.3789     0.5663    -3.1000 H      1 <0>       0.1200
9 C9       -1.6948    -1.0907    -2.3074 C.3    1 <0>      -0.1400
10 C10      -1.3678    -2.5940    -2.1564 C.3    1 <0>      -0.1400
11 C11       0.1669    -2.6915    -2.4141 C.3    1 <0>      -0.0900
12 H12       0.5426    -3.6777    -2.6867 H      1 <0>       0.1200
13 C13       0.3683    -1.5436    -3.4914 C.3    1 <0>      -0.1200
14 C14       0.8337    -2.0166    -1.1764 C.3    1 <0>      -0.0700
15 C15       2.3466    -2.2439    -1.1956 C.3    1 <0>      -0.1500
16 C16       0.2278    -2.5607     0.1188 C.3    1 <0>      -0.1800
17 H17       0.1456     1.9559    -0.4721 H      1 <0>       0.1300
18 H18      -1.3232     1.3965    -1.3075 H      1 <0>       0.1200
19 H19      -1.3449     1.6555     0.4534 H      1 <0>       0.1300
20 H20       2.3510     0.1964    -0.5009 H      1 <0>       0.0800
21 H21       2.3559    -0.0164    -2.2681 H      1 <0>       0.1100
22 H22       1.5072     1.3688    -1.5409 H      1 <0>       0.0800
23 H23      -2.0941    -0.6931    -1.3744 H      1 <0>       0.0500
24 H24      -2.4029    -0.9358    -3.1214 H      1 <0>       0.1000
25 H25      -1.6064    -2.9354    -1.1491 H      1 <0>       0.0800
26 H26      -1.9152    -3.1781    -2.8962 H      1 <0>       0.0900
27 H27      -0.1747    -1.7490    -4.4139 H      1 <0>       0.0900
28 H28       1.4224    -1.3400    -3.6796 H      1 <0>       0.0900
29 H29       2.7637    -1.8361    -2.1164 H      1 <0>       0.0700
30 H30       2.7999    -1.7448    -0.3391 H      1 <0>       0.0700
31 H31       2.5542    -3.3128    -1.1449 H      1 <0>       0.0800
32 H32       0.3244    -3.6462     0.1372 H      1 <0>       0.1000
33 H33       0.7538    -2.1346     0.9731 H      1 <0>       0.0700
34 H34      -0.8266    -2.2889     0.1689 H      1 <0>       0.0600
@<TRIPOS>BOND
1    1    2 1
2    1   17 1
3    1   18 1
4    1   19 1
5    2    3 1
6    2    4 1
7    2    5 1
8    5   14 1
9    5    6 1
10    5    7 1
11    6   20 1
12    6   21 1
13    6   22 1
14    7    8 1
15    7   13 1
16    7    9 1
17    9   10 1
18    9   23 1
19    9   24 1
20   10   11 1
21   10   25 1
22   10   26 1
23   11   12 1
24   11   13 1
25   11   14 1
26   13   27 1
27   13   28 1
28   14   15 1
29   14   16 1
30   15   29 1
31   15   30 1
32   15   31 1
33   16   32 1
34   16   33 1
35   16   34 1
