@<TRIPOS>MOLECULE
ZINC000003782550
17   16    0    0    0
SMALL
USER_CHARGES
NO_NAME
@<TRIPOS>ATOM
1 N1       -0.0178     1.4648     0.0101 N.3    1 <0>      -0.8400
2 C2        0.0021    -0.0041     0.0020 C.3    1 <0>       0.0100
3 C3       -1.4117    -0.5257     0.0127 C.2    1 <0>       0.3500
4 O4       -2.3401     0.2465     0.0257 O.2    1 <0>      -0.4500
5 C5       -1.6670    -2.0109     0.0072 C.3    1 <0>      -0.1400
6 C6       -3.1749    -2.2693     0.0202 C.3    1 <0>      -0.1700
7 C7       -3.4302    -3.7545     0.0146 C.2    1 <0>       0.4900
8 O8       -2.4929    -4.5341     0.0015 O.co2  1 <0>      -0.7000
9 O9       -4.5740    -4.1765     0.0233 O.co2  1 <0>      -0.7000
10 H10       0.9191     1.8392     0.0032 H      1 <0>       0.3400
11 H11      -0.5563     1.8234    -0.7642 H      1 <0>       0.3500
12 H12       0.5123    -0.3556    -0.8948 H      1 <0>       0.0600
13 H13       0.5293    -0.3651     0.8851 H      1 <0>       0.1000
14 H14      -1.2306    -2.4512    -0.8894 H      1 <0>       0.0900
15 H15      -1.2136    -2.4608     0.8905 H      1 <0>       0.1000
16 H16      -3.6113    -1.8290     0.9168 H      1 <0>       0.0600
17 H17      -3.6283    -1.8194    -0.8631 H      1 <0>       0.0600
@<TRIPOS>BOND
1    1    2 1
2    1   10 1
3    1   11 1
4    2    3 1
5    2   12 1
6    2   13 1
7    3    4 2
8    3    5 1
9    5    6 1
10    5   14 1
11    5   15 1
12    6    7 1
13    6   16 1
14    6   17 1
15    7    8 ar
16    7    9 ar
