@<TRIPOS>MOLECULE
ZINC000006021033
24    24    1     0     0
SMALL
USER_CHARGES
@<TRIPOS>ATOM
1      C1     -0.0187    1.5258    0.0104 C.3      1 ZINC000006021033   -0.1800
2      C2      0.0021   -0.0041    0.0020 C.3      1 ZINC000006021033    0.0300
3      H3      0.5293   -0.3651    0.8851 H        1 ZINC000006021033    0.1400
4      N4      0.6897   -0.4778   -1.2066 N.4      1 ZINC000006021033   -0.6400
5      H5      1.6363   -0.1286   -1.2138 H        1 ZINC000006021033    0.4400
6      H6      0.7033   -1.4867   -1.2121 H        1 ZINC000006021033    0.4300
7      H7      0.2017   -0.1436   -2.0240 H        1 ZINC000006021033    0.4300
8      C8     -1.4333   -0.5336    0.0129 C.3      1 ZINC000006021033   -0.1000
9      C9     -1.4136   -2.0361    0.1285 C.ar     1 ZINC000006021033   -0.1300
10     C10    -1.3741   -2.8166   -1.0118 C.ar     1 ZINC000006021033   -0.1400
11     C11    -1.3560   -4.1947   -0.9058 C.ar     1 ZINC000006021033   -0.1100
12     C12    -1.3769   -4.7924    0.3405 C.ar     1 ZINC000006021033   -0.1000
13     C13    -1.4154   -4.0119    1.4808 C.ar     1 ZINC000006021033   -0.1100
14     C14    -1.4292   -2.6337    1.3749 C.ar     1 ZINC000006021033   -0.1100
15     H15     1.0039    1.9031    0.0027 H        1 ZINC000006021033    0.0800
16     H16    -0.5459    1.8868   -0.8726 H        1 ZINC000006021033    0.0800
17     H17    -0.5289    1.8773    0.9072 H        1 ZINC000006021033    0.1100
18     H18    -1.9701   -0.1109    0.8621 H        1 ZINC000006021033    0.1200
19     H19    -1.9334   -0.2470   -0.9122 H        1 ZINC000006021033    0.1000
20     H20    -1.3577   -2.3496   -1.9855 H        1 ZINC000006021033    0.1200
21     H21    -1.3258   -4.8045   -1.7967 H        1 ZINC000006021033    0.1300
22     H22    -1.3634   -5.8691    0.4233 H        1 ZINC000006021033    0.1300
23     H23    -1.4321   -4.4789    2.4545 H        1 ZINC000006021033    0.1300
24     H24    -1.4593   -2.0239    2.2657 H        1 ZINC000006021033    0.1300
@<TRIPOS>BOND
1     1     2     1
2     1     15    1
3     1     16    1
4     1     17    1
5     2     3     1
6     2     4     1
7     2     8     1
8     4     5     1
9     4     6     1
10    4     7     1
11    8     9     1
12    8     18    1
13    8     19    1
14    9     14    ar
15    9     10    ar
16    10    11    ar
17    10    20    1
18    11    12    ar
19    11    21    1
20    12    13    ar
21    12    22    1
22    13    14    ar
23    13    23    1
24    14    24    1
@<TRIPOS>SUBSTRUCTURE
1   ZINC000006021033 1     RESIDUE    1   A     ZIN   1
