@<TRIPOS>MOLECULE
ZINC000000002272
32    33    1     0     0
SMALL
USER_CHARGES
@<TRIPOS>ATOM
1      C1      0.4735    0.7824    0.4092 C.3      1 ZINC000000002272   -0.1100
2      C2      0.1201   -0.7035    0.4997 C.3      1 ZINC000000002272   -0.1300
3      H3      0.6755   -1.2559   -0.2582 H        1 ZINC000000002272    0.0700
4      C4      0.4824   -1.2237    1.8669 C.2      1 ZINC000000002272    0.5000
5      O5      0.9775   -0.4753    2.6924 O.co2    1 ZINC000000002272   -0.6900
6      O6      0.2805   -2.3929    2.1475 O.co2    1 ZINC000000002272   -0.6900
7      C7     -1.3584   -0.8831    0.2695 C.ar     1 ZINC000000002272   -0.0400
8      C8     -2.2678   -0.2656    1.1098 C.ar     1 ZINC000000002272   -0.0800
9      C9     -3.6275   -0.4250    0.9058 C.ar     1 ZINC000000002272   -0.1300
10     C10    -4.0849   -1.2016   -0.1379 C.ar     1 ZINC000000002272   -0.0800
11     C11    -3.1724   -1.8277   -0.9905 C.ar     1 ZINC000000002272   -0.1700
12     C12    -3.6550   -2.6613   -2.1109 C.2      1 ZINC000000002272    0.4500
13     O13    -4.8405   -2.6942   -2.3772 O.2      1 ZINC000000002272   -0.4600
14     C14    -2.6966   -3.4549   -2.9075 C.ar     1 ZINC000000002272   -0.1500
15     C15    -1.5692   -4.0110   -2.2985 C.ar     1 ZINC000000002272   -0.0800
16     C16    -0.6789   -4.7510   -3.0481 C.ar     1 ZINC000000002272   -0.1300
17     C17    -0.9005   -4.9432   -4.4005 C.ar     1 ZINC000000002272   -0.1000
18     C18    -2.0153   -4.3952   -5.0104 C.ar     1 ZINC000000002272   -0.1300
19     C19    -2.9167   -3.6573   -4.2719 C.ar     1 ZINC000000002272   -0.0700
20     C20    -1.8019   -1.6581   -0.7819 C.ar     1 ZINC000000002272   -0.0800
21     H21     1.5428    0.9123    0.5757 H        1 ZINC000000002272    0.0600
22     H22     0.2114    1.1586   -0.5796 H        1 ZINC000000002272    0.0300
23     H23    -0.0820    1.3348    1.1671 H        1 ZINC000000002272    0.0500
24     H24    -1.9150    0.3435    1.9290 H        1 ZINC000000002272    0.1300
25     H25    -4.3318    0.0596    1.5657 H        1 ZINC000000002272    0.1200
26     H26    -5.1461   -1.3258   -0.2955 H        1 ZINC000000002272    0.1300
27     H27    -1.3949   -3.8615   -1.2431 H        1 ZINC000000002272    0.1400
28     H28     0.1933   -5.1813   -2.5786 H        1 ZINC000000002272    0.1300
29     H29    -0.1999   -5.5233   -4.9828 H        1 ZINC000000002272    0.1300
30     H30    -2.1821   -4.5491   -6.0663 H        1 ZINC000000002272    0.1300
31     H31    -3.7863   -3.2302   -4.7491 H        1 ZINC000000002272    0.1300
32     H32    -1.0910   -2.1390   -1.4375 H        1 ZINC000000002272    0.1300
@<TRIPOS>BOND
1     1     2     1
2     1     21    1
3     1     22    1
4     1     23    1
5     2     3     1
6     2     4     1
7     2     7     1
8     4     5     ar
9     4     6     ar
10    7     20    ar
11    7     8     ar
12    8     9     ar
13    8     24    1
14    9     10    ar
15    9     25    1
16    10    11    ar
17    10    26    1
18    11    12    1
19    11    20    ar
20    12    13    2
21    12    14    1
22    14    19    ar
23    14    15    ar
24    15    16    ar
25    15    27    1
26    16    17    ar
27    16    28    1
28    17    18    ar
29    17    29    1
30    18    19    ar
31    18    30    1
32    19    31    1
33    20    32    1
@<TRIPOS>SUBSTRUCTURE
1   ZINC000000002272 1     RESIDUE    1   A     ZIN   1
