@<TRIPOS>MOLECULE
ZINC000000000196
46    47    1     0     0
SMALL
USER_CHARGES
@<TRIPOS>ATOM
1      C1     -0.0178    1.4648    0.0101 C.3      1 ZINC000000000196    0.0200
2      N2      0.0021   -0.0041    0.0020 N.3      1 ZINC000000000196   -0.5400
3      C3      0.7062   -0.5275    1.1802 C.3      1 ZINC000000000196    0.0200
4      C4     -1.3597   -0.5486   -0.0825 C.3      1 ZINC000000000196    0.0500
5      C5     -1.9710   -0.1854   -1.4372 C.3      1 ZINC000000000196    0.0700
6      O6     -1.2274   -0.8444   -2.4960 O.3      1 ZINC000000000196   -0.3300
7      C7     -1.6388   -0.6279   -3.7553 C.2      1 ZINC000000000196    0.4700
8      O8     -2.5887    0.0885   -3.9658 O.2      1 ZINC000000000196   -0.5000
9      C9     -0.9158   -1.2784   -4.9065 C.3      1 ZINC000000000196   -0.0200
10     H10     0.1254   -0.9559   -4.9104 H        1 ZINC000000000196    0.1200
11     C11    -1.5711   -0.8766   -6.2027 C.ar     1 ZINC000000000196   -0.0800
12     C12    -2.9020   -1.1758   -6.4262 C.ar     1 ZINC000000000196   -0.0600
13     C13    -3.5031   -0.8073   -7.6151 C.ar     1 ZINC000000000196   -0.1300
14     C14    -2.7734   -0.1390   -8.5805 C.ar     1 ZINC000000000196   -0.1100
15     C15    -1.4427    0.1611   -8.3566 C.ar     1 ZINC000000000196   -0.1300
16     C16    -0.8428   -0.2037   -7.1659 C.ar     1 ZINC000000000196   -0.1100
17     C17    -0.9779   -2.7995   -4.7536 C.3      1 ZINC000000000196    0.1400
18     O18    -2.3327   -3.2511   -4.8049 O.3      1 ZINC000000000196   -0.5500
19     C19    -0.1315   -3.4897   -5.8519 C.3      1 ZINC000000000196   -0.1400
20     C20     0.1916   -4.8663   -5.2198 C.3      1 ZINC000000000196   -0.1300
21     C21     0.4310   -4.5511   -3.7287 C.3      1 ZINC000000000196   -0.1300
22     C22    -0.3126   -3.2370   -3.4324 C.3      1 ZINC000000000196   -0.1500
23     H23     1.0047    1.8421    0.0024 H        1 ZINC000000000196    0.0700
24     H24    -0.5450    1.8259   -0.8730 H        1 ZINC000000000196    0.0700
25     H25    -0.5280    1.8163    0.9069 H        1 ZINC000000000196    0.0300
26     H26     0.1617   -0.2488    2.0824 H        1 ZINC000000000196    0.0300
27     H27     0.7676   -1.6137    1.1140 H        1 ZINC000000000196    0.0700
28     H28     1.7116   -0.1084    1.2186 H        1 ZINC000000000196    0.0700
29     H29    -1.3244   -1.6331    0.0212 H        1 ZINC000000000196    0.0900
30     H30    -1.9698   -0.1268    0.7163 H        1 ZINC000000000196    0.0600
31     H31    -3.0106   -0.5117   -1.4659 H        1 ZINC000000000196    0.0700
32     H32    -1.9251    0.8944   -1.5788 H        1 ZINC000000000196    0.0700
33     H33    -3.4721   -1.6980   -5.6720 H        1 ZINC000000000196    0.1300
34     H34    -4.5428   -1.0417   -7.7900 H        1 ZINC000000000196    0.1200
35     H35    -3.2429    0.1483   -9.5097 H        1 ZINC000000000196    0.1200
36     H36    -0.8725    0.6829   -9.1109 H        1 ZINC000000000196    0.1200
37     H37     0.1969    0.0308   -6.9909 H        1 ZINC000000000196    0.1200
38     H38    -2.4319   -4.2086   -4.7130 H        1 ZINC000000000196    0.3800
39     H39    -0.7111   -3.6113   -6.7670 H        1 ZINC000000000196    0.0800
40     H40     0.7831   -2.9287   -6.0443 H        1 ZINC000000000196    0.0800
41     H41    -0.6522   -5.5466   -5.3352 H        1 ZINC000000000196    0.0700
42     H42     1.0895   -5.2910   -5.6688 H        1 ZINC000000000196    0.0700
43     H43     0.0321   -5.3539   -3.1087 H        1 ZINC000000000196    0.0600
44     H44     1.4974   -4.4275   -3.5398 H        1 ZINC000000000196    0.0700
45     H45     0.3928   -2.4756   -3.0995 H        1 ZINC000000000196    0.0900
46     H46    -1.0724   -3.4020   -2.6685 H        1 ZINC000000000196    0.0800
@<TRIPOS>BOND
1     1     2     1
2     1     23    1
3     1     24    1
4     1     25    1
5     2     3     1
6     2     4     1
7     3     26    1
8     3     27    1
9     3     28    1
10    4     5     1
11    4     29    1
12    4     30    1
13    5     6     1
14    5     31    1
15    5     32    1
16    6     7     1
17    7     8     2
18    7     9     1
19    9     10    1
20    9     11    1
21    9     17    1
22    11    16    ar
23    11    12    ar
24    12    13    ar
25    12    33    1
26    13    14    ar
27    13    34    1
28    14    15    ar
29    14    35    1
30    15    16    ar
31    15    36    1
32    16    37    1
33    17    22    1
34    17    18    1
35    17    19    1
36    18    38    1
37    19    20    1
38    19    39    1
39    19    40    1
40    20    21    1
41    20    41    1
42    20    42    1
43    21    22    1
44    21    43    1
45    21    44    1
46    22    45    1
47    22    46    1
@<TRIPOS>SUBSTRUCTURE
1   ZINC000000000196 1     RESIDUE    1   A     ZIN   1
