@<TRIPOS>MOLECULE
ZINC000000896958
51    53    1     0     0
SMALL
USER_CHARGES
@<TRIPOS>ATOM
1      C1     -0.1961    1.2966    0.0983 C.3      1 ZINC000000896958   -0.0500
2      N2     -0.1073   -0.1688    0.0487 N.4      1 ZINC000000896958   -0.2700
3      C3     -1.4577   -0.7465    0.0236 C.3      1 ZINC000000896958   -0.0400
4      C4      0.6280   -0.5807   -1.1611 C.3      1 ZINC000000896958   -0.0100
5      C5      1.8847   -1.3452   -0.6942 C.3      1 ZINC000000896958   -0.1600
6      C6      2.0868   -0.8326    0.7561 C.3      1 ZINC000000896958    0.0700
7      H7      2.6128    0.1221    0.7630 H        1 ZINC000000896958    0.1200
8      O8      2.7884   -1.8157    1.5621 O.3      1 ZINC000000896958   -0.3200
9      C9      4.1268   -1.7239    1.6069 C.2      1 ZINC000000896958    0.4500
10     O10     4.6934   -0.8510    0.9929 O.2      1 ZINC000000896958   -0.4800
11     C11     4.9227   -2.7096    2.4230 C.3      1 ZINC000000896958    0.2100
12     O12     4.2927   -3.9911    2.3693 O.3      1 ZINC000000896958   -0.5200
13     C13     6.3188   -2.8124    1.8648 C.ar     1 ZINC000000896958   -0.1400
14     C14     6.8382   -4.0476    1.5252 C.ar     1 ZINC000000896958   -0.1000
15     C15     8.1187   -4.1419    1.0132 C.ar     1 ZINC000000896958   -0.1200
16     C16     8.8798   -3.0009    0.8404 C.ar     1 ZINC000000896958   -0.1000
17     C17     8.3601   -1.7656    1.1791 C.ar     1 ZINC000000896958   -0.1200
18     C18     7.0779   -1.6708    1.6871 C.ar     1 ZINC000000896958   -0.0800
19     C19     4.9881   -2.2338    3.8757 C.3      1 ZINC000000896958   -0.0800
20     C20     5.4994   -0.7734    3.9453 C.3      1 ZINC000000896958   -0.1300
21     C21     4.9404   -0.2800    5.3030 C.3      1 ZINC000000896958   -0.1300
22     C22     3.5428   -0.9265    5.3941 C.3      1 ZINC000000896958   -0.1300
23     C23     3.5730   -2.1688    4.4866 C.3      1 ZINC000000896958   -0.1200
24     C24     0.6234   -0.6634    1.2350 C.3      1 ZINC000000896958   -0.0100
25     H25     0.8077    1.7214    0.1077 H        1 ZINC000000896958    0.1200
26     H26    -0.7353    1.6578   -0.7775 H        1 ZINC000000896958    0.1300
27     H27    -0.7267    1.5981    1.0015 H        1 ZINC000000896958    0.1200
28     H28    -1.9953   -0.3758   -0.8491 H        1 ZINC000000896958    0.1300
29     H29    -1.3873   -1.8330   -0.0275 H        1 ZINC000000896958    0.1200
30     H30    -1.9926   -0.4593    0.9289 H        1 ZINC000000896958    0.1200
31     H31     0.0027   -1.2326   -1.7711 H        1 ZINC000000896958    0.1400
32     H32     0.9207    0.2988   -1.7345 H        1 ZINC000000896958    0.1400
33     H33     1.7065   -2.4205   -0.7016 H        1 ZINC000000896958    0.1100
34     H34     2.7433   -1.0914   -1.3159 H        1 ZINC000000896958    0.1200
35     H35     4.2170   -4.3550    1.4766 H        1 ZINC000000896958    0.3800
36     H36     6.2436   -4.9390    1.6602 H        1 ZINC000000896958    0.1300
37     H37     8.5248   -5.1070    0.7486 H        1 ZINC000000896958    0.1300
38     H38     9.8805   -3.0747    0.4410 H        1 ZINC000000896958    0.1300
39     H39     8.9548   -0.8742    1.0444 H        1 ZINC000000896958    0.1300
40     H40     6.6719   -0.7057    1.9518 H        1 ZINC000000896958    0.1300
41     H41     5.6274   -2.8925    4.4634 H        1 ZINC000000896958    0.1100
42     H42     6.5890   -0.7451    3.9430 H        1 ZINC000000896958    0.0800
43     H43     5.0948   -0.1828    3.1234 H        1 ZINC000000896958    0.0700
44     H44     5.5728   -0.6213    6.1226 H        1 ZINC000000896958    0.0700
45     H45     4.8592    0.8070    5.3097 H        1 ZINC000000896958    0.0700
46     H46     3.3337   -1.2205    6.4227 H        1 ZINC000000896958    0.0700
47     H47     2.7841   -0.2266    5.0438 H        1 ZINC000000896958    0.0600
48     H48     2.8290   -2.0718    3.6959 H        1 ZINC000000896958    0.0700
49     H49     3.3787   -3.0656    5.0748 H        1 ZINC000000896958    0.0800
50     H50     0.5708    0.0651    2.0441 H        1 ZINC000000896958    0.1400
51     H51     0.2170   -1.6216    1.5588 H        1 ZINC000000896958    0.1500
@<TRIPOS>BOND
1     1     2     1
2     1     25    1
3     1     26    1
4     1     27    1
5     2     24    1
6     2     3     1
7     2     4     1
8     3     28    1
9     3     29    1
10    3     30    1
11    4     5     1
12    4     31    1
13    4     32    1
14    5     6     1
15    5     33    1
16    5     34    1
17    6     7     1
18    6     8     1
19    6     24    1
20    8     9     1
21    9     10    2
22    9     11    1
23    11    12    1
24    11    13    1
25    11    19    1
26    12    35    1
27    13    18    ar
28    13    14    ar
29    14    15    ar
30    14    36    1
31    15    16    ar
32    15    37    1
33    16    17    ar
34    16    38    1
35    17    18    ar
36    17    39    1
37    18    40    1
38    19    23    1
39    19    20    1
40    19    41    1
41    20    21    1
42    20    42    1
43    20    43    1
44    21    22    1
45    21    44    1
46    21    45    1
47    22    23    1
48    22    46    1
49    22    47    1
50    23    48    1
51    23    49    1
52    24    50    1
53    24    51    1
@<TRIPOS>SUBSTRUCTURE
1   ZINC000000896958 1     RESIDUE    1   A     ZIN   1
