@<TRIPOS>MOLECULE
ZINC000000537795
58    60    1     0     0
SMALL
USER_CHARGES
@<TRIPOS>ATOM
1      C1     -0.0184    1.5028    0.0103 C.3      1 ZINC000000537795   -0.1100
2      C2      0.0021   -0.0041    0.0020 C.ar     1 ZINC000000537795    0.1100
3      C3      0.0058   -0.6890   -1.2044 C.ar     1 ZINC000000537795    0.0500
4      N4      0.0240   -2.0068   -1.2168 N.ar     1 ZINC000000537795   -0.4100
5      C5      0.0390   -2.6811   -0.0704 C.ar     1 ZINC000000537795    0.0100
6      C6      0.0601   -4.1624   -0.0800 C.2      1 ZINC000000537795    0.5800
7      O7      0.0737   -4.7766    0.9684 O.2      1 ZINC000000537795   -0.5200
8      N8      0.0641   -4.8287   -1.2515 N.am     1 ZINC000000537795   -0.7100
9      C9      0.0849   -6.2936   -1.2610 C.3      1 ZINC000000537795    0.1200
10     C10     0.0853   -6.7943   -2.7067 C.3      1 ZINC000000537795   -0.1000
11     C11     0.1068   -8.3011   -2.7165 C.ar     1 ZINC000000537795   -0.0300
12     C12     1.3136   -8.9752   -2.7208 C.ar     1 ZINC000000537795   -0.1300
13     C13     1.3333  -10.3573   -2.7297 C.ar     1 ZINC000000537795   -0.0100
14     C14     0.1461  -11.0655   -2.7339 C.ar     1 ZINC000000537795   -0.6400
15     S15     0.1712  -12.8272   -2.7458 S.o2     1 ZINC000000537795    2.6600
16     O16    -1.0730  -13.2425   -3.2924 O.2      1 ZINC000000537795   -0.9800
17     O17     1.4262  -13.2070   -3.2935 O.2      1 ZINC000000537795   -0.9700
18     N18     0.1790  -13.3281   -1.1674 N.am     1 ZINC000000537795   -1.0000
19     C19     0.1972  -14.5987   -0.8882 C.2      1 ZINC000000537795    0.6900
20     O20     0.2097  -15.5094   -1.8859 O.3      1 ZINC000000537795   -0.5000
21     N21     0.2037  -15.0140    0.4208 N.pl3    1 ZINC000000537795   -0.7000
22     C22     0.2242  -16.4448    0.7353 C.3      1 ZINC000000537795    0.1200
23     C23     1.6686  -16.9494    0.7212 C.3      1 ZINC000000537795   -0.1400
24     C24     1.6900  -18.4436    1.0496 C.3      1 ZINC000000537795   -0.1200
25     C25     1.0842  -18.6697    2.4362 C.3      1 ZINC000000537795   -0.1300
26     C26    -0.3602  -18.1651    2.4502 C.3      1 ZINC000000537795   -0.1200
27     C27    -0.3816  -16.6709    2.1219 C.3      1 ZINC000000537795   -0.1200
28     C28    -1.0608  -10.3914   -2.7282 C.ar     1 ZINC000000537795   -0.0100
29     C29    -1.0804   -9.0092   -2.7154 C.ar     1 ZINC000000537795   -0.1300
30     C30     0.0352   -1.9896    1.1405 C.ar     1 ZINC000000537795    0.1200
31     N31     0.0219   -0.6689    1.1438 N.ar     1 ZINC000000537795   -0.4400
32     H32     1.0042    1.8801    0.0026 H        1 ZINC000000537795    0.0900
33     H33    -0.5455    1.8639   -0.8728 H        1 ZINC000000537795    0.0900
34     H34    -0.5286    1.8543    0.9071 H        1 ZINC000000537795    0.0900
35     H35    -0.0067   -0.1414   -2.1351 H        1 ZINC000000537795    0.1800
36     H36     0.0532   -4.3384   -2.0884 H        1 ZINC000000537795    0.4100
37     H37     0.9824   -6.6474   -0.7537 H        1 ZINC000000537795    0.0800
38     H38    -0.7973   -6.6728   -0.7454 H        1 ZINC000000537795    0.0800
39     H39    -0.8121   -6.4404   -3.2141 H        1 ZINC000000537795    0.0900
40     H40     0.9676   -6.4150   -3.2223 H        1 ZINC000000537795    0.0900
41     H41     2.2412   -8.4219   -2.7176 H        1 ZINC000000537795    0.1300
42     H42     2.2762  -10.8840   -2.7338 H        1 ZINC000000537795    0.1400
43     H43     0.2229  -16.4269   -1.5808 H        1 ZINC000000537795    0.4200
44     H44     0.1948  -14.3601    1.1372 H        1 ZINC000000537795    0.4300
45     H45    -0.3579  -16.9886   -0.0087 H        1 ZINC000000537795    0.0900
46     H46     2.1002  -16.7882   -0.2666 H        1 ZINC000000537795    0.0700
47     H47     2.2507  -16.4055    1.4652 H        1 ZINC000000537795    0.0800
48     H48     1.1079  -18.9874    0.3057 H        1 ZINC000000537795    0.0700
49     H49     2.7189  -18.8030    1.0396 H        1 ZINC000000537795    0.0700
50     H50     1.0994  -19.7342    2.6701 H        1 ZINC000000537795    0.0700
51     H51     1.6663  -18.1259    3.1802 H        1 ZINC000000537795    0.0700
52     H52    -0.9423  -18.7090    1.7063 H        1 ZINC000000537795    0.0700
53     H53    -0.7918  -18.3263    3.4381 H        1 ZINC000000537795    0.0700
54     H54     0.2005  -16.1271    2.8658 H        1 ZINC000000537795    0.0800
55     H55    -1.4106  -16.3115    2.1318 H        1 ZINC000000537795    0.0800
56     H56    -1.9883  -10.9446   -2.7310 H        1 ZINC000000537795    0.1400
57     H57    -2.0233   -8.4826   -2.7109 H        1 ZINC000000537795    0.1300
58     H58     0.0470   -2.5329    2.0738 H        1 ZINC000000537795    0.1800
@<TRIPOS>BOND
1     1     2     1
2     1     32    1
3     1     33    1
4     1     34    1
5     2     31    ar
6     2     3     ar
7     3     4     ar
8     3     35    1
9     4     5     ar
10    5     6     1
11    5     30    ar
12    6     7     2
13    6     8     am
14    8     9     1
15    8     36    1
16    9     10    1
17    9     37    1
18    9     38    1
19    10    11    1
20    10    39    1
21    10    40    1
22    11    29    ar
23    11    12    ar
24    12    13    ar
25    12    41    1
26    13    14    ar
27    13    42    1
28    14    15    1
29    14    28    ar
30    15    16    2
31    15    17    2
32    15    18    am
33    18    19    2
34    19    20    1
35    19    21    1
36    20    43    1
37    21    22    1
38    21    44    1
39    22    27    1
40    22    23    1
41    22    45    1
42    23    24    1
43    23    46    1
44    23    47    1
45    24    25    1
46    24    48    1
47    24    49    1
48    25    26    1
49    25    50    1
50    25    51    1
51    26    27    1
52    26    52    1
53    26    53    1
54    27    54    1
55    27    55    1
56    28    29    ar
57    28    56    1
58    29    57    1
59    30    31    ar
60    30    58    1
@<TRIPOS>SUBSTRUCTURE
1   ZINC000000537795 1     RESIDUE    1   A     ZIN   1
