@<TRIPOS>MOLECULE
ZINC000004640636
20   20    0    0    0
SMALL
USER_CHARGES
NO_NAME
@<TRIPOS>ATOM
1 C1       -0.0187     1.5258     0.0104 C.3    1 <0>      -0.1500
2 C2        0.0021    -0.0041     0.0020 C.3    1 <0>      -0.1200
3 C3        0.7182    -0.4975    -1.2568 C.3    1 <0>      -0.0800
4 C4        0.7386    -2.0043    -1.2651 C.2    1 <0>       0.1500
5 C5       -0.2118    -2.6920    -1.9341 C.2    1 <0>      -0.3000
6 C6       -0.1713    -4.1074    -1.9271 C.2    1 <0>       0.5000
7 O7       -1.0171    -4.7494    -2.5233 O.2    1 <0>      -0.5700
8 N8        0.8127    -4.7376    -1.2544 N.pl3  1 <0>      -0.6100
9 C9        1.7472    -4.0271    -0.5960 C.2    1 <0>       0.5300
10 S10       2.9883    -4.8465     0.2520 S.2    1 <0>      -0.7500
11 N11       1.7231    -2.6819    -0.5997 N.am   1 <0>      -0.6100
12 H12       1.0039     1.9031     0.0027 H      1 <0>       0.0500
13 H13      -0.5459     1.8868    -0.8726 H      1 <0>       0.0600
14 H14      -0.5289     1.8773     0.9072 H      1 <0>       0.0600
15 H15       0.5293    -0.3651     0.8851 H      1 <0>       0.0700
16 H16      -1.0205    -0.3814     0.0098 H      1 <0>       0.0700
17 H17       0.1910    -0.1364    -2.1398 H      1 <0>       0.0900
18 H18       1.7408    -0.1202    -1.2645 H      1 <0>       0.0800
19 H19      -0.9924    -2.1695    -2.4670 H      1 <0>       0.1300
20 H20       2.4057    -2.1879    -0.1191 H      1 <0>       0.4100
@<TRIPOS>BOND
1    1    2 1
2    1   12 1
3    1   13 1
4    1   14 1
5    2    3 1
6    2   15 1
7    2   16 1
8    3    4 1
9    3   17 1
10    3   18 1
11    4   11 1
12    4    5 2
13    5    6 1
14    5   19 1
15    6    7 2
16    6    8 1
17    8    9 1
18    9   10 2
19    9   11 am
20   11   20 1
