@<TRIPOS>MOLECULE
ZINC000000083315
27   28    0    0    0
SMALL
USER_CHARGES
NO_NAME
@<TRIPOS>ATOM
1 N1       -0.0116     1.0048     0.0076 N.4    1 <0>      -0.6100
2 H2        0.0021    -0.0041     0.0020 H      1 <0>       0.4300
3 H3        0.9350     1.3541     0.0004 H      1 <0>       0.4300
4 H4       -0.4996     1.3391    -0.8099 H      1 <0>       0.4100
5 C5       -0.6992     1.4786     1.2162 C.3    1 <0>      -0.0400
6 H6       -0.7140     2.5685     1.2222 H      1 <0>       0.1300
7 C7       -2.1346     0.9490     1.2270 C.3    1 <0>      -0.0400
8 C8       -2.8990     1.5459     0.0736 C.2    1 <0>      -0.2100
9 C9       -3.6749     2.6406     0.1112 C.2    1 <0>       0.0800
10 N10      -4.2061     2.8788    -1.1271 N.pl3  1 <0>      -0.5900
11 C11      -3.7740     1.9186    -2.0144 C.ar   1 <0>       0.1000
12 C12      -4.0045     1.6916    -3.3671 C.ar   1 <0>      -0.1200
13 C13      -3.4125     0.6150    -3.9909 C.ar   1 <0>      -0.1000
14 C14      -2.5869    -0.2472    -3.2829 C.ar   1 <0>      -0.1300
15 C15      -2.3468    -0.0429    -1.9532 C.ar   1 <0>      -0.1000
16 C16      -2.9311     1.0452    -1.3027 C.ar   1 <0>      -0.1200
17 C17       0.0297     0.9794     2.4371 C.2    1 <0>       0.4900
18 O18      -0.2657     1.4060     3.5403 O.co2  1 <0>      -0.6400
19 O19       0.9147     0.1488     2.3216 O.co2  1 <0>      -0.6700
20 H20      -2.1220    -0.1367     1.1315 H      1 <0>       0.0900
21 H21      -2.6169     1.2257     2.1646 H      1 <0>       0.1200
22 H22      -3.8538     3.2439     0.9889 H      1 <0>       0.1800
23 H23      -4.7989     3.6144    -1.3471 H      1 <0>       0.4200
24 H24      -4.6456     2.3567    -3.9266 H      1 <0>       0.1200
25 H25      -3.5930     0.4402    -5.0413 H      1 <0>       0.1300
26 H26      -2.1309    -1.0866    -3.7868 H      1 <0>       0.1300
27 H27      -1.7032    -0.7180    -1.4087 H      1 <0>       0.1200
@<TRIPOS>BOND
1    1    2 1
2    1    3 1
3    1    4 1
4    1    5 1
5    5    6 1
6    5    7 1
7    5   17 1
8    7    8 1
9    7   20 1
10    7   21 1
11    8   16 1
12    8    9 2
13    9   10 1
14    9   22 1
15   10   11 1
16   10   23 1
17   11   16 ar
18   11   12 ar
19   12   13 ar
20   12   24 1
21   13   14 ar
22   13   25 1
23   14   15 ar
24   14   26 1
25   15   16 ar
26   15   27 1
27   17   18 ar
28   17   19 ar
