@<TRIPOS>MOLECULE
ZINC000245204949
52    57    1     0     0
SMALL
USER_CHARGES
@<TRIPOS>ATOM
1      C1      0.0417    1.2563    0.3049 C.3      1 ZINC000245204949   -0.0600
2      N2      0.0613   -0.1957    0.0827 N.4      1 ZINC000245204949   -0.2500
3      C3      0.5986   -0.4715   -1.2564 C.3      1 ZINC000245204949    0.0200
4      C4      2.0662   -0.0430   -1.3152 C.3      1 ZINC000245204949   -0.2100
5      C5      3.1185   -1.1442   -1.4599 C.3      1 ZINC000245204949   -0.1700
6      C6      2.8032   -0.2271   -2.6433 C.3      1 ZINC000245204949   -0.1500
7      C7     -1.3074   -0.7144    0.1676 C.3      1 ZINC000245204949   -0.0100
8      C8     -1.9008   -0.4071    1.5482 C.3      1 ZINC000245204949   -0.1200
9      C9     -0.9998   -1.0392    2.6072 C.3      1 ZINC000245204949   -0.0300
10     C10    -0.8799   -2.5210    2.3491 C.ar     1 ZINC000245204949   -0.1900
11     C11     0.0298   -3.1400    1.5232 C.ar     1 ZINC000245204949   -0.0600
12     C12    -0.0698   -4.5180    1.4414 C.ar     1 ZINC000245204949   -0.1100
13     C13    -1.0031   -5.1967    2.2074 C.ar     1 ZINC000245204949   -0.1000
14     C14    -1.8652   -4.5626    3.0996 C.ar     1 ZINC000245204949    0.1100
15     O15    -2.7492   -5.2671    3.8557 O.3      1 ZINC000245204949   -0.4800
16     C16    -1.7799   -3.1683    3.1837 C.ar     1 ZINC000245204949    0.1000
17     O17    -2.4070   -2.2748    3.9786 O.3      1 ZINC000245204949   -0.2600
18     C18    -1.6431   -1.0314    3.9867 C.3      1 ZINC000245204949    0.0600
19     H19    -2.2923   -0.1655    4.1165 H        1 ZINC000245204949    0.1600
20     C20    -0.6416   -1.1317    5.0992 C.2      1 ZINC000245204949    0.3400
21     O21    -1.0028   -1.5836    6.1592 O.2      1 ZINC000245204949   -0.4100
22     C22     0.7864   -0.6980    4.9575 C.3      1 ZINC000245204949   -0.1600
23     C23     1.3221   -1.1061    3.5835 C.3      1 ZINC000245204949   -0.1300
24     C24     0.4092   -0.4810    2.4873 C.3      1 ZINC000245204949    0.1400
25     O25     0.3753    0.9388    2.6456 O.3      1 ZINC000245204949   -0.5400
26     C26     0.9247   -0.8254    1.0876 C.3      1 ZINC000245204949    0.0200
27     H27     1.9199   -0.3926    0.9851 H        1 ZINC000245204949    0.1400
28     C28     1.0585   -2.3149    0.8203 C.3      1 ZINC000245204949   -0.0900
29     H29     1.0537    1.6064    0.5085 H        1 ZINC000245204949    0.1100
30     H30    -0.3432    1.7549   -0.5847 H        1 ZINC000245204949    0.1100
31     H31    -0.5999    1.4850    1.1559 H        1 ZINC000245204949    0.1600
32     H32     0.5231   -1.5386   -1.4654 H        1 ZINC000245204949    0.1300
33     H33     0.0274    0.0855   -1.9990 H        1 ZINC000245204949    0.1300
34     H34     2.3267    0.8263   -0.7114 H        1 ZINC000245204949    0.1200
35     H35     4.0715   -0.9996   -0.9511 H        1 ZINC000245204949    0.1100
36     H36     2.7653   -2.1740   -1.5132 H        1 ZINC000245204949    0.1100
37     H37     2.2425   -0.6535   -3.4751 H        1 ZINC000245204949    0.1100
38     H38     3.5488    0.5209   -2.9131 H        1 ZINC000245204949    0.1100
39     H39    -1.9204   -0.2454   -0.6021 H        1 ZINC000245204949    0.1400
40     H40    -1.2957   -1.7930    0.0109 H        1 ZINC000245204949    0.1300
41     H41    -1.9435    0.6716    1.6982 H        1 ZINC000245204949    0.1100
42     H42    -2.9035   -0.8287    1.6194 H        1 ZINC000245204949    0.1200
43     H43     0.5825   -5.0662    0.7777 H        1 ZINC000245204949    0.1400
44     H44    -1.0661   -6.2702    2.1078 H        1 ZINC000245204949    0.1500
45     H45    -2.3990   -5.5458    4.7129 H        1 ZINC000245204949    0.4000
46     H46     0.8477    0.3852    5.0627 H        1 ZINC000245204949    0.1200
47     H47     1.3869   -1.1703    5.7349 H        1 ZINC000245204949    0.1100
48     H48     2.3415   -0.7388    3.4646 H        1 ZINC000245204949    0.1000
49     H49     1.3093   -2.1923    3.4938 H        1 ZINC000245204949    0.0900
50     H50     1.2408    1.3636    2.5714 H        1 ZINC000245204949    0.3900
51     H51     2.0474   -2.6402    1.1434 H        1 ZINC000245204949    0.1300
52     H52     0.9705   -2.4865   -0.2525 H        1 ZINC000245204949    0.1100
@<TRIPOS>BOND
1     1     2     1
2     1     29    1
3     1     30    1
4     1     31    1
5     2     26    1
6     2     3     1
7     2     7     1
8     3     4     1
9     3     32    1
10    3     33    1
11    4     6     1
12    4     5     1
13    4     34    1
14    5     6     1
15    5     35    1
16    5     36    1
17    6     37    1
18    6     38    1
19    7     8     1
20    7     39    1
21    7     40    1
22    8     9     1
23    8     41    1
24    8     42    1
25    9     18    1
26    9     24    1
27    9     10    1
28    10    16    ar
29    10    11    ar
30    11    28    1
31    11    12    ar
32    12    13    ar
33    12    43    1
34    13    14    ar
35    13    44    1
36    14    15    1
37    14    16    ar
38    15    45    1
39    16    17    1
40    17    18    1
41    18    19    1
42    18    20    1
43    20    21    2
44    20    22    1
45    22    23    1
46    22    46    1
47    22    47    1
48    23    24    1
49    23    48    1
50    23    49    1
51    24    25    1
52    24    26    1
53    25    50    1
54    26    27    1
55    26    28    1
56    28    51    1
57    28    52    1
@<TRIPOS>SUBSTRUCTURE
1   ZINC000245204949 1     RESIDUE    1   A     ZIN   1
