@<TRIPOS>MOLECULE
ZINC000002570817
31    32    1     0     0
SMALL
USER_CHARGES
@<TRIPOS>ATOM
1      N1      0.0603    1.4402    0.3025 N.pl3    1 ZINC000002570817   -0.8600
2      C2      0.0223    0.0592    0.1657 C.ar     1 ZINC000002570817    0.2600
3      C3     -1.1823   -0.6217    0.2869 C.ar     1 ZINC000002570817   -0.0900
4      C4     -2.4523    0.1396    0.5676 C.3      1 ZINC000002570817   -0.1500
5      C5     -3.0330    0.6432   -0.7286 C.2      1 ZINC000002570817    0.4900
6      O6     -2.4680    0.4060   -1.7826 O.co2    1 ZINC000002570817   -0.6800
7      O7     -4.0678    1.2879   -0.7233 O.co2    1 ZINC000002570817   -0.7000
8      C8     -1.2175   -1.9944    0.1502 C.ar     1 ZINC000002570817   -0.0600
9      C9     -0.0554   -2.7047   -0.1076 C.ar     1 ZINC000002570817   -0.1800
10     C10     1.1492   -2.0481   -0.2304 C.ar     1 ZINC000002570817   -0.0600
11     C11     1.2013   -0.6569   -0.1018 C.ar     1 ZINC000002570817   -0.2400
12     C12     2.4861    0.0521   -0.2319 C.2      1 ZINC000002570817    0.4600
13     O13     3.2934    0.0197    0.6771 O.2      1 ZINC000002570817   -0.4500
14     C14     2.7940    0.8027   -1.4669 C.ar     1 ZINC000002570817   -0.1500
15     C15     1.8424    0.8989   -2.4848 C.ar     1 ZINC000002570817   -0.0400
16     C16     2.1358    1.6007   -3.6347 C.ar     1 ZINC000002570817   -0.1000
17     C17     3.3711    2.2096   -3.7818 C.ar     1 ZINC000002570817   -0.0600
18     Br18    3.7649    3.1707   -5.3620 Br       1 ZINC000002570817   -0.0500
19     C19     4.3190    2.1179   -2.7762 C.ar     1 ZINC000002570817   -0.1100
20     C20     4.0358    1.4239   -1.6189 C.ar     1 ZINC000002570817   -0.0600
21     H21     0.9126    1.9032    0.3134 H        1 ZINC000002570817    0.3900
22     H22    -0.7655    1.9424    0.3831 H        1 ZINC000002570817    0.4100
23     H23    -3.1704   -0.5192    1.0558 H        1 ZINC000002570817    0.0700
24     H24    -2.2326    0.9847    1.2200 H        1 ZINC000002570817    0.0600
25     H25    -2.1568   -2.5190    0.2450 H        1 ZINC000002570817    0.1200
26     H26    -0.0946   -3.7788   -0.2124 H        1 ZINC000002570817    0.1200
27     H27     2.0515   -2.6068   -0.4306 H        1 ZINC000002570817    0.1200
28     H28     0.8789    0.4243   -2.3714 H        1 ZINC000002570817    0.1500
29     H29     1.4010    1.6756   -4.4227 H        1 ZINC000002570817    0.1400
30     H30     5.2806    2.5946   -2.8970 H        1 ZINC000002570817    0.1400
31     H31     4.7758    1.3531   -0.8354 H        1 ZINC000002570817    0.1400
@<TRIPOS>BOND
1     1     2     1
2     1     21    1
3     1     22    1
4     2     11    ar
5     2     3     ar
6     3     4     1
7     3     8     ar
8     4     5     1
9     4     23    1
10    4     24    1
11    5     6     ar
12    5     7     ar
13    8     9     ar
14    8     25    1
15    9     10    ar
16    9     26    1
17    10    11    ar
18    10    27    1
19    11    12    1
20    12    13    2
21    12    14    1
22    14    20    ar
23    14    15    ar
24    15    16    ar
25    15    28    1
26    16    17    ar
27    16    29    1
28    17    18    1
29    17    19    ar
30    19    20    ar
31    19    30    1
32    20    31    1
@<TRIPOS>SUBSTRUCTURE
1   ZINC000002570817 1     RESIDUE    1   A     ZIN   1
