@<TRIPOS>MOLECULE
ZINC000006827695
9     8     1     0     0
SMALL
USER_CHARGES
@<TRIPOS>ATOM
1      O1      0.0021   -0.0041    0.0020 O.co2    1 ZINC000006827695   -1.2300
2      P2     -0.0192    1.5624    0.0106 P.3      1 ZINC000006827695    2.2300
3      O3      1.4506    2.1047   -0.0005 O.co2    1 ZINC000006827695   -1.2100
4      O4     -0.7769    2.0814   -1.2586 O.co2    1 ZINC000006827695   -1.2300
5      O5     -0.7728    2.0816    1.3353 O.3      1 ZINC000006827695   -1.1100
6      P6     -0.7115    3.4403    2.1969 P.3      1 ZINC000006827695    2.2400
7      O7      0.7748    3.9238    2.3046 O.co2    1 ZINC000006827695   -1.2100
8      O8     -1.5702    4.5449    1.4920 O.co2    1 ZINC000006827695   -1.2300
9      O9     -1.2794    3.1742    3.6326 O.co2    1 ZINC000006827695   -1.2300
@<TRIPOS>BOND
1     1     2     ar
2     2     3     ar
3     2     4     ar
4     2     5     1
5     5     6     1
6     6     7     ar
7     6     8     ar
8     6     9     ar
@<TRIPOS>SUBSTRUCTURE
1   ZINC000006827695 1     RESIDUE    1   A     ZIN   1
