@<TRIPOS>MOLECULE
ZINC000004216238
32   34    0    0    0
SMALL
USER_CHARGES
NO_NAME
@<TRIPOS>ATOM
1 N1       -0.0167     1.3795     0.0096 N.pl3  1 <0>      -0.8100
2 C2        0.0021    -0.0041     0.0020 C.ar   1 <0>       0.5400
3 C3       -1.1956    -0.7388     0.0037 C.ar   1 <0>      -0.1100
4 N4       -2.5116    -0.4148     0.0116 N.2    1 <0>      -0.4600
5 C5       -3.2254    -1.5027     0.0091 C.2    1 <0>       0.2900
6 N6       -2.4093    -2.5952    -0.0007 N.pl3  1 <0>      -0.4600
7 C7       -2.8367    -3.9965    -0.0062 C.3    1 <0>       0.3200
8 H8       -2.1586    -4.6009    -0.6086 H      1 <0>       0.1300
9 O9       -4.1907    -4.1131    -0.4935 O.3    1 <0>      -0.3500
10 C10      -4.7048    -5.3649    -0.0088 C.3    1 <0>       0.0600
11 H11      -4.5390    -6.1459    -0.7509 H      1 <0>       0.1000
12 C12      -6.2009    -5.2347     0.2836 C.3    1 <0>       0.0800
13 O13      -6.9087    -5.0224    -0.9395 O.3    1 <0>      -0.5600
14 C14      -3.9418    -5.7027     1.2867 C.3    1 <0>       0.0500
15 H15      -4.6243    -5.7258     2.1364 H      1 <0>       0.0900
16 O16      -3.2646    -6.9542     1.1566 O.3    1 <0>      -0.5500
17 C17      -2.9202    -4.5473     1.4401 C.3    1 <0>       0.0700
18 H18      -1.9534    -4.9247     1.7733 H      1 <0>       0.1000
19 O19      -3.4111    -3.5481     2.3360 O.3    1 <0>      -0.5400
20 C20      -1.1146    -2.1414    -0.0043 C.ar   1 <0>       0.3300
21 N21       0.0821    -2.7199    -0.0127 N.ar   1 <0>      -0.5800
22 C22       1.1808    -1.9904    -0.0135 C.ar   1 <0>       0.5700
23 F23       2.3779    -2.6165    -0.0221 F      1 <0>      -0.0700
24 N24       1.1533    -0.6679    -0.0125 N.ar   1 <0>      -0.6100
25 H25       0.8167     1.8759     0.0043 H      1 <0>       0.4100
26 H26      -0.8632     1.8531     0.0162 H      1 <0>       0.4200
27 H27      -4.3049    -1.5356     0.0143 H      1 <0>       0.2200
28 H28      -6.5595    -6.1488     0.7569 H      1 <0>       0.0600
29 H29      -6.3684    -4.3898     0.9517 H      1 <0>       0.0600
30 H30      -7.8650    -4.9306    -0.8297 H      1 <0>       0.3900
31 H31      -3.8531    -7.7055     1.0006 H      1 <0>       0.3900
32 H32      -3.5687    -3.8687     3.2345 H      1 <0>       0.3900
@<TRIPOS>BOND
1    1    2 1
2    1   25 1
3    1   26 1
4    2   24 ar
5    2    3 ar
6    3   20 ar
7    3    4 1
8    4    5 2
9    5    6 1
10    5   27 1
11    6    7 1
12    6   20 1
13    7    8 1
14    7   17 1
15    7    9 1
16    9   10 1
17   10   11 1
18   10   12 1
19   10   14 1
20   12   13 1
21   12   28 1
22   12   29 1
23   13   30 1
24   14   15 1
25   14   16 1
26   14   17 1
27   16   31 1
28   17   18 1
29   17   19 1
30   19   32 1
31   20   21 ar
32   21   22 ar
33   22   23 1
34   22   24 ar
