@<TRIPOS>MOLECULE
ZINC000016052277
56    59    1     0     0
SMALL
USER_CHARGES
@<TRIPOS>ATOM
1      C1     -1.0422    2.8523    1.2120 C.3      1 ZINC000016052277   -0.1600
2      C2     -0.8697    1.4007    0.7604 C.3      1 ZINC000016052277   -0.0500
3      H3     -1.8196    0.8751    0.8587 H        1 ZINC000016052277    0.1000
4      C4     -0.4282    1.3729   -0.6800 C.ar     1 ZINC000016052277   -0.0200
5      C5     -0.7209    2.4224   -1.5211 C.ar     1 ZINC000016052277   -0.1300
6      C6     -0.3225    2.3844   -2.8484 C.ar     1 ZINC000016052277   -0.0700
7      C7      0.3697    1.2957   -3.3414 C.ar     1 ZINC000016052277   -0.1600
8      C8      0.6758    0.2304   -2.5069 C.ar     1 ZINC000016052277    0.1500
9      O9      1.3543   -0.8408   -2.9891 O.3      1 ZINC000016052277   -0.4900
10     C10     0.2812    0.2676   -1.1643 C.ar     1 ZINC000016052277   -0.1600
11     C11     0.5759   -0.8517   -0.2572 C.2      1 ZINC000016052277    0.2600
12     O12     0.9271   -2.0576   -0.7543 O.3      1 ZINC000016052277   -0.4400
13     C13     0.4905   -0.6581    1.1109 C.2      1 ZINC000016052277   -0.2700
14     C14     0.6826   -1.7458    1.9544 C.2      1 ZINC000016052277    0.3800
15     O15     0.9200   -2.8284    1.4542 O.2      1 ZINC000016052277   -0.4200
16     C16     0.6125   -1.6531    3.4554 C.3      1 ZINC000016052277    0.0600
17     O17     1.6791   -2.3969    4.0480 O.3      1 ZINC000016052277   -0.5500
18     C18    -0.7376   -2.1954    3.8857 C.2      1 ZINC000016052277    0.3800
19     O19    -1.3559   -2.9544    3.1682 O.2      1 ZINC000016052277   -0.4800
20     C20    -1.2801   -1.7873    5.1806 C.2      1 ZINC000016052277   -0.4800
21     C21    -2.4464   -2.4890    5.7401 C.2      1 ZINC000016052277    0.5900
22     N22    -2.9333   -3.5842    5.1237 N.am     1 ZINC000016052277   -0.8700
23     O23    -2.9708   -2.0806    6.7587 O.2      1 ZINC000016052277   -0.5500
24     C24    -0.7063   -0.7530    5.8772 C.2      1 ZINC000016052277    0.3100
25     O25    -1.2446   -0.3841    7.0490 O.3      1 ZINC000016052277   -0.5600
26     C26     0.5016   -0.0218    5.3734 C.3      1 ZINC000016052277    0.0400
27     H27     0.3933    1.0387    5.6008 H        1 ZINC000016052277    0.1500
28     N28     1.6922   -0.5371    6.0624 N.4      1 ZINC000016052277   -0.3700
29     H29     1.8212   -1.5102    5.8289 H        1 ZINC000016052277    0.4300
30     C30     2.8725    0.2285    5.6395 C.3      1 ZINC000016052277   -0.0500
31     C31     1.5149   -0.4012    7.5143 C.3      1 ZINC000016052277   -0.0500
32     C32     0.6905   -0.1870    3.8781 C.3      1 ZINC000016052277   -0.1200
33     H33     1.6834    0.1827    3.6221 H        1 ZINC000016052277    0.1000
34     C34    -0.3299    0.6177    3.0791 C.3      1 ZINC000016052277    0.1300
35     H35    -1.2974    0.1164    3.1067 H        1 ZINC000016052277    0.1200
36     O36    -0.4502    1.9298    3.6323 O.3      1 ZINC000016052277   -0.5300
37     C37     0.1807    0.7187    1.6330 C.3      1 ZINC000016052277   -0.0500
38     H38     1.0862    1.3253    1.6199 H        1 ZINC000016052277    0.0900
39     H39    -0.0643    3.3279    1.2876 H        1 ZINC000016052277    0.0600
40     H40    -1.6520    3.3889    0.4852 H        1 ZINC000016052277    0.0600
41     H41    -1.5331    2.8742    2.1849 H        1 ZINC000016052277    0.0900
42     H42    -1.2628    3.2780   -1.1459 H        1 ZINC000016052277    0.1400
43     H43    -0.5556    3.2121   -3.5018 H        1 ZINC000016052277    0.1400
44     H44     0.6728    1.2735   -4.3777 H        1 ZINC000016052277    0.1400
45     H45     2.3154   -0.7638   -2.9145 H        1 ZINC000016052277    0.4000
46     H46     0.2820   -2.4324   -1.3694 H        1 ZINC000016052277    0.4100
47     H47     1.6724   -3.3383    3.8270 H        1 ZINC000016052277    0.4100
48     H48    -2.5584   -3.8709    4.2763 H        1 ZINC000016052277    0.4000
49     H49    -3.6587   -4.0858    5.5276 H        1 ZINC000016052277    0.3900
50     H50     2.6766    1.2940    5.7599 H        1 ZINC000016052277    0.1200
51     H51     3.7282   -0.0551    6.2522 H        1 ZINC000016052277    0.1200
52     H52     3.0883    0.0147    4.5927 H        1 ZINC000016052277    0.1200
53     H53     0.6392   -0.9693    7.8281 H        1 ZINC000016052277    0.1400
54     H54     2.3984   -0.7836    8.0256 H        1 ZINC000016052277    0.1100
55     H55     1.3756    0.6500    7.7666 H        1 ZINC000016052277    0.1200
56     H56     0.3579    2.4576    3.5722 H        1 ZINC000016052277    0.3700
@<TRIPOS>BOND
1     1     2     1
2     1     39    1
3     1     40    1
4     1     41    1
5     2     3     1
6     2     37    1
7     2     4     1
8     4     10    ar
9     4     5     ar
10    5     6     ar
11    5     42    1
12    6     7     ar
13    6     43    1
14    7     8     ar
15    7     44    1
16    8     9     1
17    8     10    ar
18    9     45    1
19    10    11    1
20    11    12    1
21    11    13    2
22    12    46    1
23    13    37    1
24    13    14    1
25    14    15    2
26    14    16    1
27    16    32    1
28    16    17    1
29    16    18    1
30    17    47    1
31    18    19    2
32    18    20    1
33    20    21    1
34    20    24    2
35    21    22    am
36    21    23    2
37    22    48    1
38    22    49    1
39    24    25    1
40    24    26    1
41    26    27    1
42    26    28    1
43    26    32    1
44    28    29    1
45    28    30    1
46    28    31    1
47    30    50    1
48    30    51    1
49    30    52    1
50    31    53    1
51    31    54    1
52    31    55    1
53    32    33    1
54    32    34    1
55    34    35    1
56    34    36    1
57    34    37    1
58    36    56    1
59    37    38    1
@<TRIPOS>SUBSTRUCTURE
1   ZINC000016052277 1     RESIDUE    1   A     ZIN   1
