@<TRIPOS>MOLECULE
ZINC000000896918
22    22    1     0     0
SMALL
USER_CHARGES
@<TRIPOS>ATOM
1      N1     -0.0204    1.6518    0.0111 N.am     1 ZINC000000896918   -1.2400
2      S2      0.0021   -0.0041    0.0020 S.o2     1 ZINC000000896918    2.7100
3      O3      1.3604   -0.3860   -0.1664 O.2      1 ZINC000000896918   -0.9400
4      O4     -0.7920   -0.4222    1.1038 O.2      1 ZINC000000896918   -0.9400
5      C5     -0.8462   -0.5292   -1.4503 C.ar     1 ZINC000000896918   -0.6900
6      C6     -2.2104   -0.7469   -1.4127 C.ar     1 ZINC000000896918    0.0500
7      C7     -2.8769   -1.1593   -2.5528 C.ar     1 ZINC000000896918   -0.0700
8      Cl8    -4.5906   -1.4323   -2.5062 Cl       1 ZINC000000896918   -0.0200
9      C9     -2.1763   -1.3535   -3.7310 C.ar     1 ZINC000000896918    0.1000
10     Cl10   -3.0112   -1.8704   -5.1627 Cl       1 ZINC000000896918    0.0100
11     C11    -0.8107   -1.1351   -3.7669 C.ar     1 ZINC000000896918   -0.6900
12     S12     0.0818   -1.3815   -5.2661 S.o2     1 ZINC000000896918    2.7000
13     N13    -0.0080   -2.9944   -5.6306 N.am     1 ZINC000000896918   -1.2400
14     O14    -0.6425   -0.6998   -6.2809 O.2      1 ZINC000000896918   -0.9400
15     O15     1.4453   -1.1124   -4.9702 O.2      1 ZINC000000896918   -0.9400
16     C16    -0.1475   -0.7178   -2.6285 C.ar     1 ZINC000000896918    0.1000
17     H17     0.8130    2.1481    0.0058 H        1 ZINC000000896918    0.4300
18     H18    -0.8669    2.1253    0.0177 H        1 ZINC000000896918    0.4200
19     H19    -2.7563   -0.5955   -0.4931 H        1 ZINC000000896918    0.1700
20     H20     0.0128   -3.2843   -6.5560 H        1 ZINC000000896918    0.4300
21     H21    -0.0815   -3.6492   -4.9187 H        1 ZINC000000896918    0.4200
22     H22     0.9186   -0.5474   -2.6568 H        1 ZINC000000896918    0.1800
@<TRIPOS>BOND
1     1     2     am
2     1     17    1
3     1     18    1
4     2     3     2
5     2     4     2
6     2     5     1
7     5     16    ar
8     5     6     ar
9     6     7     ar
10    6     19    1
11    7     8     1
12    7     9     ar
13    9     10    1
14    9     11    ar
15    11    12    1
16    11    16    ar
17    12    13    am
18    12    14    2
19    12    15    2
20    13    20    1
21    13    21    1
22    16    22    1
@<TRIPOS>SUBSTRUCTURE
1   ZINC000000896918 1     RESIDUE    1   A     ZIN   1
