@<TRIPOS>MOLECULE
ZINC000004474405
67    68    1     0     0
SMALL
USER_CHARGES
@<TRIPOS>ATOM
1      C1     -0.7392    1.5446    0.6991 C.3      1 ZINC000004474405   -0.1700
2      C2     -0.7101    0.0153    0.6648 C.3      1 ZINC000004474405    0.1100
3      N3      0.2100   -0.4788    1.6922 N.am     1 ZINC000004474405   -0.7400
4      C4      0.3975   -1.8044    1.8477 C.2      1 ZINC000004474405    0.5100
5      O5     -0.1954   -2.5882    1.1370 O.2      1 ZINC000004474405   -0.5400
6      C6      1.3440   -2.3127    2.9045 C.3      1 ZINC000004474405   -0.1400
7      C7      1.3731   -3.8420    2.8702 C.3      1 ZINC000004474405   -0.1000
8      C8      2.3340   -4.3580    3.9432 C.3      1 ZINC000004474405   -0.1000
9      C9      2.3626   -5.8644    3.9094 C.2      1 ZINC000004474405   -0.1700
10     C10     3.5070   -6.4960    3.8231 C.2      1 ZINC000004474405   -0.1400
11     C11     4.8004   -5.7297    3.9286 C.3      1 ZINC000004474405   -0.0800
12     C12     5.6765   -6.3552    5.0158 C.3      1 ZINC000004474405   -0.0700
13     H13     5.1231   -6.4138    5.9531 H        1 ZINC000004474405    0.0800
14     C14     6.9570   -5.5172    5.2097 C.3      1 ZINC000004474405   -0.0500
15     H15     7.1830   -4.9511    4.3061 H        1 ZINC000004474405    0.0900
16     C16     6.8069   -4.5895    6.3879 C.2      1 ZINC000004474405   -0.1400
17     C17     6.9011   -3.2940    6.2177 C.2      1 ZINC000004474405   -0.1900
18     C18     6.7510   -2.3664    7.3958 C.3      1 ZINC000004474405    0.1400
19     H19     5.8584   -1.7546    7.2652 H        1 ZINC000004474405    0.1100
20     O20     6.6306   -3.1347    8.5947 O.3      1 ZINC000004474405   -0.5600
21     C21     7.9804   -1.4608    7.4918 C.3      1 ZINC000004474405   -0.1400
22     C22     7.7736   -0.4368    8.6097 C.3      1 ZINC000004474405   -0.0800
23     C23     8.9846    0.4552    8.7042 C.ar     1 ZINC000004474405   -0.0800
24     C24    10.0382    0.1052    9.5277 C.ar     1 ZINC000004474405   -0.1200
25     C25    11.1490    0.9234    9.6144 C.ar     1 ZINC000004474405   -0.1200
26     C26    11.2064    2.0914    8.8773 C.ar     1 ZINC000004474405   -0.1300
27     C27    10.1531    2.4409    8.0531 C.ar     1 ZINC000004474405   -0.1200
28     C28     9.0441    1.6205    7.9631 C.ar     1 ZINC000004474405   -0.1200
29     C29     8.0616   -6.5685    5.4812 C.3      1 ZINC000004474405    0.1100
30     H30     8.0347   -6.8976    6.5200 H        1 ZINC000004474405    0.0700
31     O31     9.3500   -6.0463    5.1507 O.3      1 ZINC000004474405   -0.5600
32     C32     7.6731   -7.7262    4.5284 C.3      1 ZINC000004474405   -0.1900
33     C33     6.1308   -7.7603    4.5832 C.3      1 ZINC000004474405    0.1100
34     H34     5.7992   -8.5014    5.3105 H        1 ZINC000004474405    0.0600
35     O35     5.6019   -8.0709    3.2925 O.3      1 ZINC000004474405   -0.5500
36     H36     0.2616    1.9314    0.5070 H        1 ZINC000004474405    0.0600
37     H37    -1.4237    1.9122   -0.0653 H        1 ZINC000004474405    0.0700
38     H38    -1.0761    1.8797    1.6801 H        1 ZINC000004474405    0.0600
39     H39    -1.7109   -0.3716    0.8570 H        1 ZINC000004474405    0.0700
40     H40    -0.3732   -0.3198   -0.3161 H        1 ZINC000004474405    0.0700
41     H41     0.6842    0.1480    2.2606 H        1 ZINC000004474405    0.4000
42     H42     2.3448   -1.9259    2.7124 H        1 ZINC000004474405    0.0900
43     H43     1.0071   -1.9776    3.8855 H        1 ZINC000004474405    0.0900
44     H44     0.3723   -4.2288    3.0624 H        1 ZINC000004474405    0.0700
45     H45     1.7100   -4.1771    1.8893 H        1 ZINC000004474405    0.0700
46     H46     3.3348   -3.9712    3.7511 H        1 ZINC000004474405    0.0700
47     H47     1.9971   -4.0229    4.9242 H        1 ZINC000004474405    0.0700
48     H48     1.4396   -6.4232    3.9564 H        1 ZINC000004474405    0.1100
49     H49     3.5236   -7.5658    3.6762 H        1 ZINC000004474405    0.1200
50     H50     5.3241   -5.7677    2.9734 H        1 ZINC000004474405    0.0800
51     H51     4.5880   -4.6920    4.1855 H        1 ZINC000004474405    0.0700
52     H52     6.6217   -4.9928    7.3725 H        1 ZINC000004474405    0.1200
53     H53     7.0864   -2.8908    5.2331 H        1 ZINC000004474405    0.1200
54     H54     7.3910   -3.7041    8.7750 H        1 ZINC000004474405    0.3700
55     H55     8.8607   -2.0652    7.7110 H        1 ZINC000004474405    0.0700
56     H56     8.1235   -0.9407    6.5446 H        1 ZINC000004474405    0.0700
57     H57     6.8934    0.1675    8.3905 H        1 ZINC000004474405    0.0700
58     H58     7.6306   -0.9569    9.5569 H        1 ZINC000004474405    0.0800
59     H59     9.9934   -0.8074   10.1037 H        1 ZINC000004474405    0.1200
60     H60    11.9719    0.6503   10.2584 H        1 ZINC000004474405    0.1200
61     H61    12.0739    2.7310    8.9456 H        1 ZINC000004474405    0.1200
62     H62    10.1977    3.3536    7.4774 H        1 ZINC000004474405    0.1200
63     H63     8.2212    1.8936    7.3191 H        1 ZINC000004474405    0.1200
64     H64    10.0765   -6.6662    5.3027 H        1 ZINC000004474405    0.3800
65     H65     8.0147   -7.5169    3.5147 H        1 ZINC000004474405    0.0900
66     H66     8.0880   -8.6691    4.8848 H        1 ZINC000004474405    0.0700
67     H67     5.8711   -8.9361    2.9549 H        1 ZINC000004474405    0.3700
@<TRIPOS>BOND
1     1     2     1
2     1     36    1
3     1     37    1
4     1     38    1
5     2     3     1
6     2     39    1
7     2     40    1
8     3     4     am
9     3     41    1
10    4     5     2
11    4     6     1
12    6     7     1
13    6     42    1
14    6     43    1
15    7     8     1
16    7     44    1
17    7     45    1
18    8     9     1
19    8     46    1
20    8     47    1
21    9     10    2
22    9     48    1
23    10    11    1
24    10    49    1
25    11    12    1
26    11    50    1
27    11    51    1
28    12    13    1
29    12    33    1
30    12    14    1
31    14    15    1
32    14    16    1
33    14    29    1
34    16    17    2
35    16    52    1
36    17    18    1
37    17    53    1
38    18    19    1
39    18    20    1
40    18    21    1
41    20    54    1
42    21    22    1
43    21    55    1
44    21    56    1
45    22    23    1
46    22    57    1
47    22    58    1
48    23    28    ar
49    23    24    ar
50    24    25    ar
51    24    59    1
52    25    26    ar
53    25    60    1
54    26    27    ar
55    26    61    1
56    27    28    ar
57    27    62    1
58    28    63    1
59    29    30    1
60    29    31    1
61    29    32    1
62    31    64    1
63    32    33    1
64    32    65    1
65    32    66    1
66    33    34    1
67    33    35    1
68    35    67    1
@<TRIPOS>SUBSTRUCTURE
1   ZINC000004474405 1     RESIDUE    1   A     ZIN   1
