@<TRIPOS>MOLECULE
ZINC000000020245
46   48    0    0    0
SMALL
USER_CHARGES
NO_NAME
@<TRIPOS>ATOM
1 C1       -5.6834     1.3837     0.0236 C.3    1 <0>      -0.0500
2 N2       -5.6618    -0.0833    -0.0505 N.4    1 <0>      -0.3900
3 H3       -6.1148    -0.4679     0.7650 H      1 <0>       0.4300
4 C4       -6.3726    -0.5230    -1.2585 C.3    1 <0>      -0.0500
5 C5       -4.2702    -0.5505    -0.1038 C.3    1 <0>      -0.0100
6 C6       -4.2433    -2.0795    -0.0552 C.3    1 <0>      -0.1800
7 C7       -2.7938    -2.5661    -0.1108 C.3    1 <0>       0.1500
8 N8       -2.7704    -4.0309    -0.1190 N.pl3  1 <0>      -0.6100
9 C9       -2.7295    -4.7452    -1.3221 C.ar   1 <0>       0.1800
10 C10      -1.6802    -4.4785    -2.1964 C.ar   1 <0>      -0.1400
11 C11      -1.5635    -5.1714    -3.3830 C.ar   1 <0>      -0.1000
12 C12      -2.5014    -6.1389    -3.6937 C.ar   1 <0>      -0.1300
13 C13      -3.5467    -6.3930    -2.8355 C.ar   1 <0>      -0.1100
14 C14      -3.6933    -5.6904    -1.6377 C.ar   1 <0>      -0.1000
15 C15      -4.9382    -6.0353    -0.8514 C.3    1 <0>      -0.0700
16 C16      -5.0979    -5.2003     0.4067 C.3    1 <0>      -0.0800
17 C17      -3.9534    -5.4242     1.3607 C.ar   1 <0>      -0.1000
18 C18      -4.0520    -6.2387     2.4651 C.ar   1 <0>      -0.1000
19 C19      -2.9527    -6.3622     3.3032 C.ar   1 <0>      -0.1200
20 C20      -1.7833    -5.6758     3.0323 C.ar   1 <0>      -0.1100
21 C21      -1.6900    -4.8644     1.9125 C.ar   1 <0>      -0.1200
22 C22      -2.7824    -4.7595     1.0763 C.ar   1 <0>       0.1500
23 H23      -6.7160     1.7304     0.0632 H      1 <0>       0.1200
24 H24      -5.1560     1.7100     0.9200 H      1 <0>       0.1200
25 H25      -5.1941     1.7992    -0.8573 H      1 <0>       0.1200
26 H26      -5.8833    -0.1075    -2.1395 H      1 <0>       0.1200
27 H27      -6.3567    -1.6115    -1.3135 H      1 <0>       0.1200
28 H28      -7.4053    -0.1763    -1.2190 H      1 <0>       0.1200
29 H29      -3.8072    -0.2082    -1.0293 H      1 <0>       0.1300
30 H30      -3.7196    -0.1502     0.7476 H      1 <0>       0.1300
31 H31      -4.7063    -2.4218     0.8703 H      1 <0>       0.0900
32 H32      -4.7938    -2.4798    -0.9066 H      1 <0>       0.0900
33 H33      -2.3188    -2.1901    -1.0169 H      1 <0>       0.0800
34 H34      -2.2536    -2.1990     0.7619 H      1 <0>       0.0800
35 H35      -0.9515    -3.7224    -1.9437 H      1 <0>       0.1200
36 H36      -0.7499    -4.9608    -4.0613 H      1 <0>       0.1300
37 H37      -2.4134    -6.6972    -4.6140 H      1 <0>       0.1300
38 H38      -4.2694    -7.1528    -3.0939 H      1 <0>       0.1200
39 H39      -5.8093    -5.8801    -1.4880 H      1 <0>       0.0800
40 H40      -4.8952    -7.0876    -0.5706 H      1 <0>       0.0800
41 H41      -5.1335    -4.1458     0.1331 H      1 <0>       0.0700
42 H42      -6.0315    -5.4719     0.8993 H      1 <0>       0.0700
43 H43      -4.9675    -6.7716     2.6760 H      1 <0>       0.1300
44 H44      -3.0112    -6.9989     4.1737 H      1 <0>       0.1300
45 H45      -0.9379    -5.7721     3.6974 H      1 <0>       0.1300
46 H46      -0.7798    -4.3245     1.6969 H      1 <0>       0.1300
@<TRIPOS>BOND
1    1    2 1
2    1   23 1
3    1   24 1
4    1   25 1
5    2    3 1
6    2    4 1
7    2    5 1
8    4   26 1
9    4   27 1
10    4   28 1
11    5    6 1
12    5   29 1
13    5   30 1
14    6    7 1
15    6   31 1
16    6   32 1
17    7    8 1
18    7   33 1
19    7   34 1
20    8   22 1
21    8    9 1
22    9   14 ar
23    9   10 ar
24   10   11 ar
25   10   35 1
26   11   12 ar
27   11   36 1
28   12   13 ar
29   12   37 1
30   13   14 ar
31   13   38 1
32   14   15 1
33   15   16 1
34   15   39 1
35   15   40 1
36   16   17 1
37   16   41 1
38   16   42 1
39   17   22 ar
40   17   18 ar
41   18   19 ar
42   18   43 1
43   19   20 ar
44   19   44 1
45   20   21 ar
46   20   45 1
47   21   22 ar
48   21   46 1
