@<TRIPOS>MOLECULE
ZINC000003871923
56    59    1     0     0
SMALL
USER_CHARGES
@<TRIPOS>ATOM
1      C1      0.0718   -6.1019   -4.9843 C.3      1 ZINC000003871923    0.0300
2      O2      1.0473   -5.3134   -4.2998 O.3      1 ZINC000003871923   -0.1800
3      N3      0.6891   -3.9510   -4.1563 N.2      1 ZINC000003871923   -0.2700
4      C4      1.4946   -3.1261   -3.5496 C.2      1 ZINC000003871923    0.1700
5      C5      2.7270   -3.6349   -2.9028 C.2      1 ZINC000003871923    0.5400
6      O6      3.0526   -4.7968   -3.0454 O.2      1 ZINC000003871923   -0.5000
7      N7      3.4866   -2.8089   -2.1564 N.am     1 ZINC000003871923   -0.6900
8      C8      4.6445   -3.3353   -1.4296 C.3      1 ZINC000003871923    0.1200
9      H9      5.0526   -4.2398   -1.8806 H        1 ZINC000003871923    0.1500
10     C10     4.4239   -3.4476    0.0694 C.2      1 ZINC000003871923    0.5300
11     O11     3.8062   -4.2121    0.7802 O.2      1 ZINC000003871923   -0.4100
12     N12     5.1857   -2.3634    0.2950 N.am     1 ZINC000003871923   -0.5700
13     C13     5.3997   -1.4239    1.3184 C.2      1 ZINC000003871923    0.1600
14     C14     5.2199   -1.8143    2.7261 C.2      1 ZINC000003871923    0.5100
15     O15     5.5337   -1.0406    3.6204 O.co2    1 ZINC000003871923   -0.6700
16     O16     4.7566   -2.9126    3.0020 O.co2    1 ZINC000003871923   -0.6000
17     C17     5.7642   -0.1855    1.0144 C.2      1 ZINC000003871923   -0.2600
18     C18     5.9122    0.7600    2.1785 C.3      1 ZINC000003871923    0.0200
19     N19     7.3108    0.7686    2.6276 N.4      1 ZINC000003871923   -0.2400
20     C20     7.7642   -0.6087    2.8627 C.3      1 ZINC000003871923   -0.0400
21     C21     8.1585    1.3981    1.5984 C.3      1 ZINC000003871923   -0.0200
22     C22     8.8483    2.6127    2.2545 C.3      1 ZINC000003871923   -0.1400
23     C23     8.7951    2.2701    3.7667 C.3      1 ZINC000003871923   -0.1400
24     C24     7.4275    1.5509    3.8767 C.3      1 ZINC000003871923    0.0000
25     C25     6.0463    0.3926   -0.3333 C.3      1 ZINC000003871923   -0.0400
26     S26     5.3059   -0.5899   -1.6727 S.3      1 ZINC000003871923   -0.2000
27     C27     5.6991   -2.2802   -1.1120 C.3      1 ZINC000003871923    0.1300
28     H28     6.7368   -2.5774   -1.2639 H        1 ZINC000003871923    0.1500
29     C29     1.1791   -1.6820   -3.5065 C.2      1 ZINC000003871923    0.1400
30     C30    -0.0054   -1.1889   -3.9184 C.2      1 ZINC000003871923   -0.2200
31     S31     0.0196    0.5598   -3.7049 S.3      1 ZINC000003871923    0.1000
32     C32     1.6579    0.4625   -3.0670 C.2      1 ZINC000003871923    0.3600
33     N33     2.4147    1.5411   -2.6411 N.pl3    1 ZINC000003871923   -0.8100
34     N34     2.0442   -0.7747   -3.0519 N.2      1 ZINC000003871923   -0.5400
35     H35     0.4206   -7.1323   -5.0531 H        1 ZINC000003871923    0.1100
36     H36    -0.8693   -6.0729   -4.4350 H        1 ZINC000003871923    0.0500
37     H37    -0.0802   -5.7020   -5.9868 H        1 ZINC000003871923    0.0500
38     H38     3.2666   -1.8658   -2.1004 H        1 ZINC000003871923    0.4300
39     H39     5.6236    1.7647    1.8696 H        1 ZINC000003871923    0.1000
40     H40     5.2700    0.4328    2.9962 H        1 ZINC000003871923    0.2000
41     H41     7.3525   -1.2630    2.0942 H        1 ZINC000003871923    0.1100
42     H42     8.8529   -0.6443    2.8251 H        1 ZINC000003871923    0.0900
43     H43     7.4235   -0.9410    3.8434 H        1 ZINC000003871923    0.1500
44     H44     8.9092    0.6882    1.2513 H        1 ZINC000003871923    0.1200
45     H45     7.5426    1.7285    0.7620 H        1 ZINC000003871923    0.1200
46     H46     9.8804    2.6995    1.9151 H        1 ZINC000003871923    0.1000
47     H47     8.2949    3.5286    2.0471 H        1 ZINC000003871923    0.0900
48     H48     9.6107    1.6027    4.0448 H        1 ZINC000003871923    0.0900
49     H49     8.8098    3.1759    4.3730 H        1 ZINC000003871923    0.1100
50     H50     6.6199    2.2797    3.9448 H        1 ZINC000003871923    0.1200
51     H51     7.4158    0.8882    4.7420 H        1 ZINC000003871923    0.1300
52     H52     5.6454    1.4054   -0.3746 H        1 ZINC000003871923    0.1200
53     H53     7.1254    0.4351   -0.4809 H        1 ZINC000003871923    0.0900
54     H54    -0.8285   -1.7665   -4.3124 H        1 ZINC000003871923    0.1900
55     H55     2.0473    2.4379   -2.6823 H        1 ZINC000003871923    0.4200
56     H56     3.3123    1.3999   -2.3015 H        1 ZINC000003871923    0.4100
@<TRIPOS>BOND
1     1     2     1
2     1     35    1
3     1     36    1
4     1     37    1
5     2     3     1
6     3     4     2
7     4     5     1
8     4     29    1
9     5     6     2
10    5     7     am
11    7     8     1
12    7     38    1
13    8     9     1
14    8     27    1
15    8     10    1
16    10    11    2
17    10    12    am
18    12    27    1
19    12    13    1
20    13    14    1
21    13    17    2
22    14    15    ar
23    14    16    ar
24    17    18    1
25    17    25    1
26    18    19    1
27    18    39    1
28    18    40    1
29    19    24    1
30    19    20    1
31    19    21    1
32    20    41    1
33    20    42    1
34    20    43    1
35    21    22    1
36    21    44    1
37    21    45    1
38    22    23    1
39    22    46    1
40    22    47    1
41    23    24    1
42    23    48    1
43    23    49    1
44    24    50    1
45    24    51    1
46    25    26    1
47    25    52    1
48    25    53    1
49    26    27    1
50    27    28    1
51    29    34    1
52    29    30    2
53    30    31    1
54    30    54    1
55    31    32    1
56    32    33    1
57    32    34    2
58    33    55    1
59    33    56    1
@<TRIPOS>SUBSTRUCTURE
1   ZINC000003871923 1     RESIDUE    1   A     ZIN   1
