@<TRIPOS>MOLECULE
ZINC000003938652
71   74    0    0    0
SMALL
NO_CHARGES
@<TRIPOS>ATOM
1 C1            -0.8997     2.7267    -2.5729 C.3
2 C2            -1.0437     1.2460    -2.2156 C.3
3 O3            -0.1707     0.4560    -3.0654 O.3
4 C4            -0.1779    -0.8762    -2.8779 C.2
5 O5            -0.8937    -1.3659    -2.0279 O.2
6 O6             0.6078    -1.6659    -3.6322 O.3
7 C7             0.6349    -3.0791    -3.3000 C.3
8 C8            -0.7276    -3.6892    -3.5057 C.2
9 O9            -1.0860    -4.6130    -2.8154 O.2
10 C10           -1.6429    -3.1466    -4.5729 C.3
11 O11           -2.8342    -3.9727    -4.6547 O.3
12 C12           -3.7577    -3.6221    -5.5635 C.2
13 O13           -3.5766    -2.6568    -6.2674 O.2
14 C14           -5.0203    -4.4323    -5.7059 C.3
15 C15           -5.8958    -3.8236    -6.8032 C.3
16 C16            1.0984    -3.2774    -1.8353 C.3
17 C17            2.4486    -4.0422    -1.9027 C.3
18 C18            2.9674    -3.6995    -3.3035 C.3
19 H19            3.3570    -2.6817    -3.3252 H
20 C20            3.9830    -4.6655    -3.8864 C.3
21 H21            3.5566    -5.6678    -3.9260 H
22 C22            5.2458    -4.6757    -3.0231 C.3
23 C23            6.2531    -5.6790    -3.5939 C.3
24 C24            6.5035    -5.3206    -5.0467 C.2
25 C25            7.7527    -5.1750    -5.4663 C.2
26 C26            8.0345    -4.8074    -6.8626 C.2
27 O27            9.1801    -4.7117    -7.2618 O.2
28 C28            6.8988    -4.5582    -7.7664 C.2
29 C29            5.6600    -4.7161    -7.3275 C.2
30 C30            5.3138    -5.1498    -5.9444 C.3
31 C31            4.6034    -6.5013    -6.0416 C.3
32 C32            4.3100    -4.1844    -5.3090 C.3
33 H33            4.7581    -3.1929    -5.2438 H
34 C34            3.0581    -4.1136    -6.1787 C.3
35 H35            3.3203    -3.6826    -7.1449 H
36 O36            2.5546    -5.4357    -6.3795 O.3
37 C37            1.9624    -3.2549    -5.5273 C.3
38 C38            1.6721    -3.8026    -4.1528 C.3
39 C39            1.3247    -5.2894    -4.2501 C.3
40 H40            0.1338     3.0382    -2.4215 H
41 H41           -1.1753     2.8771    -3.6167 H
42 H42           -1.5550     3.3198    -1.9350 H
43 H43           -0.7680     1.0956    -1.1718 H
44 H44           -2.0772     0.9345    -2.3670 H
45 H45           -1.9262    -2.1242    -4.3231 H
46 H46           -1.1273    -3.1565    -5.5332 H
47 H47           -4.7657    -5.4583    -5.9716 H
48 H48           -5.5646    -4.4259    -4.7616 H
49 H49           -6.1505    -2.7976    -6.5375 H
50 H50           -5.3516    -3.8300    -7.7476 H
51 H51           -6.8091    -4.4096    -6.9062 H
52 H52            1.2401    -2.3100    -1.3535 H
53 H53            0.3626    -3.8651    -1.2864 H
54 H54            3.1355    -3.6801    -1.1377 H
55 H55            2.2891    -5.1158    -1.8025 H
56 H56            5.6892    -3.6800    -3.0173 H
57 H57            4.9862    -4.9623    -2.0040 H
58 H58            7.1868    -5.6219    -3.0345 H
59 H59            5.8452    -6.6877    -3.5286 H
60 H60            8.5702    -5.3272    -4.7772 H
61 H61            7.0763    -4.2468    -8.7852 H
62 H62            4.8501    -4.5185    -8.0142 H
63 H63            5.3444    -7.2956    -6.1320 H
64 H64            4.0054    -6.6628    -5.1447 H
65 H65            3.9543    -6.5085    -6.9172 H
66 H66            1.7567    -5.4742    -6.9245 H
67 H67            2.3155    -2.2306    -5.4080 H
68 H68            1.0639    -3.2693    -6.1442 H
69 H69            2.2000    -5.8460    -4.5851 H
70 H70            1.0146    -5.6549    -3.2711 H
71 H71            0.5119    -5.4267    -4.9633 H
@<TRIPOS>BOND
1    1    2 1
2    1   40 1
3    1   41 1
4    1   42 1
5    2    3 1
6    2   43 1
7    2   44 1
8    3    4 1
9    4    5 2
10    4    6 1
11    6    7 1
12    7   38 1
13    7    8 1
14    7   16 1
15    8    9 2
16    8   10 1
17   10   11 1
18   10   45 1
19   10   46 1
20   11   12 1
21   12   13 2
22   12   14 1
23   14   15 1
24   14   47 1
25   14   48 1
26   15   49 1
27   15   50 1
28   15   51 1
29   16   17 1
30   16   52 1
31   16   53 1
32   17   18 1
33   17   54 1
34   17   55 1
35   18   19 1
36   18   38 1
37   18   20 1
38   20   21 1
39   20   32 1
40   20   22 1
41   22   23 1
42   22   56 1
43   22   57 1
44   23   24 1
45   23   58 1
46   23   59 1
47   24   30 1
48   24   25 2
49   25   26 1
50   25   60 1
51   26   27 2
52   26   28 1
53   28   29 2
54   28   61 1
55   29   30 1
56   29   62 1
57   30   31 1
58   30   32 1
59   31   63 1
60   31   64 1
61   31   65 1
62   32   33 1
63   32   34 1
64   34   35 1
65   34   36 1
66   34   37 1
67   36   66 1
68   37   38 1
69   37   67 1
70   37   68 1
71   38   39 1
72   39   69 1
73   39   70 1
74   39   71 1
