@<TRIPOS>MOLECULE
ZINC000000056427
32   32    0    0    0
SMALL
USER_CHARGES
NO_NAME
@<TRIPOS>ATOM
1 C1       -0.0184     1.5028     0.0103 C.3    1 <0>      -0.1400
2 C2        0.0021    -0.0041     0.0020 C.2    1 <0>      -0.0600
3 C3       -1.1407    -0.6848     0.0093 C.2    1 <0>      -0.2300
4 C4       -1.1208    -2.1552     0.0012 C.2    1 <0>       0.5500
5 O5       -0.0593    -2.7490    -0.0121 O.2    1 <0>      -0.5300
6 N6       -2.2787    -2.8449     0.0085 N.am   1 <0>      -0.5700
7 C7       -3.5571    -2.1298     0.0246 C.3    1 <0>       0.1100
8 C8       -4.0160    -1.8731    -1.4122 C.3    1 <0>      -0.1800
9 C9       -2.2597    -4.2431     0.0008 C.ar   1 <0>       0.1400
10 C10      -2.2445    -4.9454     1.1988 C.ar   1 <0>      -0.1100
11 C11      -2.2258    -6.3265     1.1877 C.ar   1 <0>      -0.1200
12 C12      -2.2221    -7.0098    -0.0144 C.ar   1 <0>      -0.1100
13 C13      -2.2367    -6.3133    -1.2092 C.ar   1 <0>      -0.1100
14 C14      -2.2617    -4.9327    -1.2051 C.ar   1 <0>      -0.0800
15 C15      -2.2782    -4.1746    -2.5074 C.3    1 <0>      -0.1100
16 H16       1.0042     1.8801     0.0026 H      1 <0>       0.0700
17 H17      -0.5455     1.8639    -0.8728 H      1 <0>       0.0800
18 H18      -0.5286     1.8543     0.9071 H      1 <0>       0.0800
19 H19       0.9446    -0.5313    -0.0098 H      1 <0>       0.1300
20 H20      -2.0832    -0.1576     0.0211 H      1 <0>       0.1300
21 H21      -4.3038    -2.7319     0.5423 H      1 <0>       0.0800
22 H22      -3.4348    -1.1785     0.5424 H      1 <0>       0.0900
23 H23      -4.9672    -1.3410    -1.4003 H      1 <0>       0.0700
24 H24      -3.2693    -1.2710    -1.9300 H      1 <0>       0.0600
25 H25      -4.1383    -2.8244    -1.9300 H      1 <0>       0.0700
26 H26      -2.2470    -4.4124     2.1381 H      1 <0>       0.1200
27 H27      -2.2136    -6.8733     2.1190 H      1 <0>       0.1300
28 H28      -2.2074    -8.0897    -0.0203 H      1 <0>       0.1300
29 H29      -2.2331    -6.8500    -2.1464 H      1 <0>       0.1300
30 H30      -3.3097    -4.0105    -2.8193 H      1 <0>       0.0700
31 H31      -1.7814    -3.2135    -2.3747 H      1 <0>       0.0600
32 H32      -1.7554    -4.7516    -3.2703 H      1 <0>       0.0700
@<TRIPOS>BOND
1    1    2 1
2    1   16 1
3    1   17 1
4    1   18 1
5    2    3 2
6    2   19 1
7    3    4 1
8    3   20 1
9    4    5 2
10    4    6 am
11    6    7 1
12    6    9 1
13    7    8 1
14    7   21 1
15    7   22 1
16    8   23 1
17    8   24 1
18    8   25 1
19    9   14 ar
20    9   10 ar
21   10   11 ar
22   10   26 1
23   11   12 ar
24   11   27 1
25   12   13 ar
26   12   28 1
27   13   14 ar
28   13   29 1
29   14   15 1
30   15   30 1
31   15   31 1
32   15   32 1
