@<TRIPOS>MOLECULE
ZINC000003079337
21   20    0    0    0
SMALL
USER_CHARGES
NO_NAME
@<TRIPOS>ATOM
1 C1        0.5353     1.3276    -0.0083 C.3    1 <0>      -0.0500
2 N2        0.0196    -0.0467     0.0486 N.4    1 <0>      -0.2700
3 C3        0.5077    -0.7028     1.2690 C.3    1 <0>      -0.0400
4 C4       -1.4491    -0.0184     0.0619 C.3    1 <0>      -0.0500
5 C5        0.4843    -0.7933    -1.1281 C.3    1 <0>      -0.0100
6 C6        2.0106    -0.7224    -1.2069 C.3    1 <0>       0.0400
7 O7        2.5782    -1.4500    -0.1158 O.3    1 <0>      -0.5700
8 H8        1.6251     1.3065    -0.0182 H      1 <0>       0.1200
9 H9        0.1731     1.8144    -0.9138 H      1 <0>       0.1200
10 H10       0.1905     1.8815     0.8648 H      1 <0>       0.1200
11 H11       0.0233    -0.2590     2.1387 H      1 <0>       0.1100
12 H12       0.2753    -1.7669     1.2272 H      1 <0>       0.1200
13 H13       1.5867    -0.5693     1.3464 H      1 <0>       0.1400
14 H14      -1.8113     0.4684    -0.8436 H      1 <0>       0.1200
15 H15      -1.8318    -1.0382     0.1042 H      1 <0>       0.1200
16 H16      -1.7939     0.5355     0.9350 H      1 <0>       0.1200
17 H17       0.1727    -1.8345    -1.0442 H      1 <0>       0.1400
18 H18       0.0533    -0.3566    -2.0290 H      1 <0>       0.1400
19 H19       2.3464    -1.1581    -2.1480 H      1 <0>       0.0900
20 H20       2.3292     0.3186    -1.1543 H      1 <0>       0.0700
21 H21       3.5451    -1.4478    -0.1023 H      1 <0>       0.4000
@<TRIPOS>BOND
1    1    2 1
2    1    8 1
3    1    9 1
4    1   10 1
5    2    3 1
6    2    4 1
7    2    5 1
8    3   11 1
9    3   12 1
10    3   13 1
11    4   14 1
12    4   15 1
13    4   16 1
14    5    6 1
15    5   17 1
16    5   18 1
17    6    7 1
18    6   19 1
19    6   20 1
20    7   21 1
