@<TRIPOS>MOLECULE
ZINC000000968255
53    53    1     0     0
SMALL
USER_CHARGES
@<TRIPOS>ATOM
1      C1      1.2779    1.5418    0.3473 C.3      1 ZINC000000968255   -0.1600
2      C2      1.3074    0.0121    0.3390 C.3      1 ZINC000000968255   -0.1100
3      C3      1.2964   -0.4904   -1.1061 C.3      1 ZINC000000968255   -0.1400
4      C4      1.3255   -1.9971   -1.1143 C.2      1 ZINC000000968255    0.5200
5      O5      1.3523   -2.6088   -0.0673 O.2      1 ZINC000000968255   -0.5200
6      N6      1.3217   -2.6648   -2.2851 N.am     1 ZINC000000968255   -0.6800
7      C7      1.4463   -4.0605   -2.2961 C.ar     1 ZINC000000968255    0.1100
8      C8      0.8676   -4.8166   -1.2815 C.ar     1 ZINC000000968255   -0.0500
9      C9      0.9842   -6.1920   -1.2825 C.ar     1 ZINC000000968255   -0.2000
10     C10     1.6807   -6.8319   -2.2962 C.ar     1 ZINC000000968255    0.1600
11     O11     1.7942   -8.1838   -2.2953 O.3      1 ZINC000000968255   -0.2700
12     C12     1.1708   -8.8864   -1.2184 C.3      1 ZINC000000968255    0.0200
13     C13     1.4043  -10.3891   -1.3869 C.3      1 ZINC000000968255    0.0900
14     H14     2.4735  -10.5834   -1.4715 H        1 ZINC000000968255    0.1400
15     O15     0.7425  -10.8444   -2.5687 O.3      1 ZINC000000968255   -0.5400
16     C16     0.8457  -11.1315   -0.1713 C.3      1 ZINC000000968255   -0.0500
17     N17     1.1751  -12.5593   -0.2756 N.4      1 ZINC000000968255   -0.5000
18     H18     0.7676  -12.9379   -1.1175 H        1 ZINC000000968255    0.4300
19     H19     2.1773  -12.6718   -0.3071 H        1 ZINC000000968255    0.4300
20     C20     0.6387  -13.2721    0.8915 C.3      1 ZINC000000968255    0.0200
21     C21    -0.8897  -13.2069    0.8708 C.3      1 ZINC000000968255   -0.1900
22     C22     1.0874  -14.7342    0.8466 C.3      1 ZINC000000968255   -0.1900
23     C23     2.2681   -6.0764   -3.3242 C.ar     1 ZINC000000968255   -0.1800
24     C24     3.0071   -6.7452   -4.4019 C.2      1 ZINC000000968255    0.3900
25     C25     3.6356   -5.9304   -5.5029 C.3      1 ZINC000000968255   -0.2000
26     O26     3.1118   -7.9537   -4.4063 O.2      1 ZINC000000968255   -0.4400
27     C27     2.1396   -4.6828   -3.3185 C.ar     1 ZINC000000968255   -0.0600
28     H28     2.1532    1.9249   -0.1772 H        1 ZINC000000968255    0.0600
29     H29     0.3737    1.8904   -0.1517 H        1 ZINC000000968255    0.0600
30     H30     1.2857    1.8997    1.3769 H        1 ZINC000000968255    0.0600
31     H31     2.2115   -0.3366    0.8380 H        1 ZINC000000968255    0.0700
32     H32     0.4321   -0.3711    0.8635 H        1 ZINC000000968255    0.0700
33     H33     0.3923   -0.1417   -1.6052 H        1 ZINC000000968255    0.1000
34     H34     2.1717   -0.1072   -1.6306 H        1 ZINC000000968255    0.1000
35     H35     1.2326   -2.1792   -3.1200 H        1 ZINC000000968255    0.4200
36     H36     0.3242   -4.3245   -0.4885 H        1 ZINC000000968255    0.1500
37     H37     0.5318   -6.7712   -0.4911 H        1 ZINC000000968255    0.1300
38     H38     1.5996   -8.5559   -0.2724 H        1 ZINC000000968255    0.0800
39     H39     0.1001   -8.6824   -1.2229 H        1 ZINC000000968255    0.0800
40     H40    -0.2141  -10.7032   -2.5630 H        1 ZINC000000968255    0.3900
41     H41     1.2859  -10.7226    0.7381 H        1 ZINC000000968255    0.1500
42     H42    -0.2370  -11.0100   -0.1374 H        1 ZINC000000968255    0.1400
43     H43     1.0100  -12.8060    1.8041 H        1 ZINC000000968255    0.1400
44     H44    -1.2610  -13.6730   -0.0419 H        1 ZINC000000968255    0.0800
45     H45    -1.2878  -13.7358    1.7368 H        1 ZINC000000968255    0.1100
46     H46    -1.2094  -12.1653    0.9027 H        1 ZINC000000968255    0.0800
47     H47     2.1763  -14.7807    0.8614 H        1 ZINC000000968255    0.0800
48     H48     0.6894  -15.2631    1.7126 H        1 ZINC000000968255    0.1100
49     H49     0.7162  -15.2003   -0.0660 H        1 ZINC000000968255    0.0800
50     H50     4.6532   -5.6609   -5.2198 H        1 ZINC000000968255    0.1000
51     H51     3.6572   -6.5165   -6.4216 H        1 ZINC000000968255    0.0900
52     H52     3.0512   -5.0245   -5.6634 H        1 ZINC000000968255    0.0900
53     H53     2.5879   -4.0944   -4.1054 H        1 ZINC000000968255    0.1500
@<TRIPOS>BOND
1     1     2     1
2     1     28    1
3     1     29    1
4     1     30    1
5     2     3     1
6     2     31    1
7     2     32    1
8     3     4     1
9     3     33    1
10    3     34    1
11    4     5     2
12    4     6     am
13    6     7     1
14    6     35    1
15    7     27    ar
16    7     8     ar
17    8     9     ar
18    8     36    1
19    9     10    ar
20    9     37    1
21    10    11    1
22    10    23    ar
23    11    12    1
24    12    13    1
25    12    38    1
26    12    39    1
27    13    14    1
28    13    15    1
29    13    16    1
30    15    40    1
31    16    17    1
32    16    41    1
33    16    42    1
34    17    18    1
35    17    19    1
36    17    20    1
37    20    21    1
38    20    22    1
39    20    43    1
40    21    44    1
41    21    45    1
42    21    46    1
43    22    47    1
44    22    48    1
45    22    49    1
46    23    24    1
47    23    27    ar
48    24    25    1
49    24    26    2
50    25    50    1
51    25    51    1
52    25    52    1
53    27    53    1
@<TRIPOS>SUBSTRUCTURE
1   ZINC000000968255 1     RESIDUE    1   A     ZIN   1
