@<TRIPOS>MOLECULE
ZINC000003831586
49    51    1     0     0
SMALL
USER_CHARGES
@<TRIPOS>ATOM
1      C1      0.1087    1.3029   -0.3635 C.3      1 ZINC000003831586   -0.1700
2      C2     -0.0817   -0.2040   -0.1791 C.3      1 ZINC000003831586   -0.1500
3      H3      0.1842   -0.7194   -1.1020 H        1 ZINC000003831586    0.1000
4      C4     -1.5439   -0.4950    0.1646 C.3      1 ZINC000003831586    0.1500
5      N5     -2.4040   -0.0284   -0.9258 N.pl3    1 ZINC000003831586   -0.6100
6      C6     -3.2710    1.0558   -0.7474 C.ar     1 ZINC000003831586    0.1800
7      C7     -2.7175    2.2650   -0.3373 C.ar     1 ZINC000003831586   -0.1600
8      C8     -3.5122    3.3804   -0.1755 C.ar     1 ZINC000003831586   -0.1100
9      C9     -4.8683    3.2844   -0.4289 C.ar     1 ZINC000003831586   -0.1300
10     C10    -5.4177    2.0852   -0.8211 C.ar     1 ZINC000003831586   -0.1100
11     C11    -4.6338    0.9398   -0.9736 C.ar     1 ZINC000003831586   -0.0900
12     C12    -5.4055   -0.3108   -1.3307 C.3      1 ZINC000003831586   -0.0700
13     C13    -4.5284   -1.5471   -1.4171 C.3      1 ZINC000003831586   -0.0700
14     C14    -3.4864   -1.4043   -2.4960 C.ar     1 ZINC000003831586   -0.0900
15     C15    -3.6098   -1.9918   -3.7339 C.ar     1 ZINC000003831586   -0.1000
16     C16    -2.5849   -1.8278   -4.6553 C.ar     1 ZINC000003831586   -0.1200
17     C17    -1.4612   -1.0901   -4.3309 C.ar     1 ZINC000003831586   -0.1100
18     C18    -1.3495   -0.4942   -3.0845 C.ar     1 ZINC000003831586   -0.1300
19     C19    -2.3799   -0.6495   -2.1801 C.ar     1 ZINC000003831586    0.1600
20     C20     0.8170   -0.6963    0.9571 C.3      1 ZINC000003831586   -0.0100
21     N21     2.2255   -0.5399    0.5703 N.4      1 ZINC000003831586   -0.3900
22     H22     2.3913    0.4127    0.2821 H        1 ZINC000003831586    0.4200
23     C23     3.0866   -0.8619    1.7160 C.3      1 ZINC000003831586   -0.0500
24     C24     2.5314   -1.4485   -0.5428 C.3      1 ZINC000003831586   -0.0500
25     H25     1.1589    1.5145   -0.5645 H        1 ZINC000003831586    0.0500
26     H26    -0.4980    1.6459   -1.2015 H        1 ZINC000003831586    0.0900
27     H27    -0.1991    1.8218    0.5443 H        1 ZINC000003831586    0.0800
28     H28    -1.6787   -1.5681    0.2999 H        1 ZINC000003831586    0.0700
29     H29    -1.8109    0.0237    1.0853 H        1 ZINC000003831586    0.0900
30     H30    -1.6569    2.3304   -0.1440 H        1 ZINC000003831586    0.1300
31     H31    -3.0809    4.3170    0.1455 H        1 ZINC000003831586    0.1300
32     H32    -5.4989    4.1542   -0.3182 H        1 ZINC000003831586    0.1200
33     H33    -6.4786    2.0289   -1.0156 H        1 ZINC000003831586    0.1200
34     H34    -6.1727   -0.4774   -0.5745 H        1 ZINC000003831586    0.0800
35     H35    -5.8931   -0.1589   -2.2937 H        1 ZINC000003831586    0.0800
36     H36    -4.0316   -1.6999   -0.4590 H        1 ZINC000003831586    0.0700
37     H37    -5.1528   -2.4132   -1.6363 H        1 ZINC000003831586    0.0700
38     H38    -4.4872   -2.5698   -3.9838 H        1 ZINC000003831586    0.1300
39     H39    -2.6655   -2.2800   -5.6328 H        1 ZINC000003831586    0.1300
40     H40    -0.6659   -0.9779   -5.0528 H        1 ZINC000003831586    0.1200
41     H41    -0.4734    0.0816   -2.8250 H        1 ZINC000003831586    0.1200
42     H42     0.6199   -0.1116    1.8556 H        1 ZINC000003831586    0.1300
43     H43     0.6092   -1.7479    1.1551 H        1 ZINC000003831586    0.1300
44     H44     2.9704   -1.9147    1.9734 H        1 ZINC000003831586    0.1200
45     H45     4.1265   -0.6641    1.4559 H        1 ZINC000003831586    0.1200
46     H46     2.8020   -0.2458    2.5689 H        1 ZINC000003831586    0.1200
47     H47     1.8924   -1.2096   -1.3929 H        1 ZINC000003831586    0.1200
48     H48     3.5765   -1.3325   -0.8298 H        1 ZINC000003831586    0.1300
49     H49     2.3522   -2.4776   -0.2315 H        1 ZINC000003831586    0.1200
@<TRIPOS>BOND
1     1     2     1
2     1     25    1
3     1     26    1
4     1     27    1
5     2     3     1
6     2     4     1
7     2     20    1
8     4     5     1
9     4     28    1
10    4     29    1
11    5     19    1
12    5     6     1
13    6     11    ar
14    6     7     ar
15    7     8     ar
16    7     30    1
17    8     9     ar
18    8     31    1
19    9     10    ar
20    9     32    1
21    10    11    ar
22    10    33    1
23    11    12    1
24    12    13    1
25    12    34    1
26    12    35    1
27    13    14    1
28    13    36    1
29    13    37    1
30    14    19    ar
31    14    15    ar
32    15    16    ar
33    15    38    1
34    16    17    ar
35    16    39    1
36    17    18    ar
37    17    40    1
38    18    19    ar
39    18    41    1
40    20    21    1
41    20    42    1
42    20    43    1
43    21    22    1
44    21    23    1
45    21    24    1
46    23    44    1
47    23    45    1
48    23    46    1
49    24    47    1
50    24    48    1
51    24    49    1
@<TRIPOS>SUBSTRUCTURE
1   ZINC000003831586 1     RESIDUE    1   A     ZIN   1
