@<TRIPOS>MOLECULE
ZINC000000000856
49    50    1     0     0
SMALL
USER_CHARGES
@<TRIPOS>ATOM
1      C1     -0.0051    1.4619   -0.0152 C.3      1 ZINC000000000856    0.0200
2      O2      0.0096    0.0329   -0.0154 O.3      1 ZINC000000000856   -0.3100
3      C3     -1.1948   -0.5965   -0.0045 C.ar     1 ZINC000000000856    0.1400
4      C4     -2.3667    0.1459    0.0004 C.ar     1 ZINC000000000856   -0.2000
5      C5     -3.5898   -0.4963    0.0110 C.ar     1 ZINC000000000856   -0.0600
6      C6     -3.6465   -1.8777    0.0171 C.ar     1 ZINC000000000856   -0.1700
7      C7     -4.9821   -2.5757    0.0292 C.3      1 ZINC000000000856   -0.0900
8      C8     -5.4439   -2.8179   -1.4092 C.3      1 ZINC000000000856    0.0300
9      H9     -5.4523   -1.8728   -1.9521 H        1 ZINC000000000856    0.1400
10     C10    -6.8535   -3.4127   -1.3989 C.3      1 ZINC000000000856   -0.1800
11     N11    -4.5226   -3.7531   -2.0684 N.4      1 ZINC000000000856   -0.5100
12     H12    -3.5800   -3.3992   -2.0027 H        1 ZINC000000000856    0.4200
13     H13    -4.5762   -4.6533   -1.6157 H        1 ZINC000000000856    0.4200
14     C14    -4.8957   -3.8932   -3.4823 C.3      1 ZINC000000000856   -0.0400
15     C15    -3.9361   -4.8672   -4.1689 C.3      1 ZINC000000000856    0.1600
16     H16    -2.9099   -4.5309   -4.0214 H        1 ZINC000000000856    0.1100
17     O17    -4.0960   -6.1705   -3.6048 O.3      1 ZINC000000000856   -0.5600
18     C18    -4.2413   -4.9173   -5.6438 C.ar     1 ZINC000000000856   -0.2800
19     C19    -5.2989   -5.6796   -6.1035 C.ar     1 ZINC000000000856   -0.0600
20     C20    -5.5838   -5.7295   -7.4558 C.ar     1 ZINC000000000856   -0.2600
21     C21    -4.8087   -5.0145   -8.3539 C.ar     1 ZINC000000000856    0.2700
22     O22    -5.0879   -5.0622   -9.6839 O.3      1 ZINC000000000856   -0.7100
23     C23    -3.7426   -4.2459   -7.8912 C.ar     1 ZINC000000000856   -0.0200
24     N24    -2.9554   -3.5201   -8.7951 N.am     1 ZINC000000000856   -0.6400
25     C25    -1.6876   -3.1944   -8.4741 C.2      1 ZINC000000000856    0.4800
26     O26    -1.1957   -3.6120   -7.4470 O.2      1 ZINC000000000856   -0.5600
27     C27    -3.4665   -4.1963   -6.5331 C.ar     1 ZINC000000000856   -0.0600
28     C28    -2.4799   -2.6199    0.0118 C.ar     1 ZINC000000000856   -0.1000
29     C29    -1.2544   -1.9825   -0.0041 C.ar     1 ZINC000000000856   -0.1400
30     H30     1.0187    1.8358   -0.0244 H        1 ZINC000000000856    0.1100
31     H31    -0.5307    1.8200   -0.9004 H        1 ZINC000000000856    0.0600
32     H32    -0.5145    1.8198    0.8795 H        1 ZINC000000000856    0.0600
33     H33    -2.3229    1.2250   -0.0037 H        1 ZINC000000000856    0.1400
34     H34    -4.5024    0.0812    0.0148 H        1 ZINC000000000856    0.1300
35     H35    -4.8884   -3.5306    0.5464 H        1 ZINC000000000856    0.1000
36     H36    -5.7128   -1.9531    0.5454 H        1 ZINC000000000856    0.1200
37     H37    -7.5371   -2.7188   -0.9098 H        1 ZINC000000000856    0.1000
38     H38    -7.1826   -3.5853   -2.4236 H        1 ZINC000000000856    0.0900
39     H39    -6.8451   -4.3578   -0.8559 H        1 ZINC000000000856    0.0800
40     H40    -5.9140   -4.2756   -3.5532 H        1 ZINC000000000856    0.1300
41     H41    -4.8378   -2.9208   -3.9714 H        1 ZINC000000000856    0.1400
42     H42    -4.9872   -6.5334   -3.6996 H        1 ZINC000000000856    0.3800
43     H43    -5.9040   -6.2381   -5.4047 H        1 ZINC000000000856    0.0900
44     H44    -6.4105   -6.3263   -7.8117 H        1 ZINC000000000856    0.1000
45     H45    -3.3229   -3.2522   -9.6519 H        1 ZINC000000000856    0.4100
46     H46    -1.1097   -2.5616   -9.1313 H        1 ZINC000000000856    0.1300
47     H47    -2.6411   -3.6013   -6.1711 H        1 ZINC000000000856    0.1200
48     H48    -2.5269   -3.6989    0.0163 H        1 ZINC000000000856    0.1300
49     H49    -0.3435   -2.5627   -0.0083 H        1 ZINC000000000856    0.1400
@<TRIPOS>BOND
1     1     2     1
2     1     30    1
3     1     31    1
4     1     32    1
5     2     3     1
6     3     29    ar
7     3     4     ar
8     4     5     ar
9     4     33    1
10    5     6     ar
11    5     34    1
12    6     7     1
13    6     28    ar
14    7     8     1
15    7     35    1
16    7     36    1
17    8     9     1
18    8     10    1
19    8     11    1
20    10    37    1
21    10    38    1
22    10    39    1
23    11    12    1
24    11    13    1
25    11    14    1
26    14    15    1
27    14    40    1
28    14    41    1
29    15    16    1
30    15    17    1
31    15    18    1
32    17    42    1
33    18    27    ar
34    18    19    ar
35    19    20    ar
36    19    43    1
37    20    21    ar
38    20    44    1
39    21    22    1
40    21    23    ar
41    23    24    1
42    23    27    ar
43    24    25    am
44    24    45    1
45    25    26    2
46    25    46    1
47    27    47    1
48    28    29    ar
49    28    48    1
50    29    49    1
@<TRIPOS>SUBSTRUCTURE
1   ZINC000000000856 1     RESIDUE    1   A     ZIN   1
