@<TRIPOS>MOLECULE
ZINC000003800008
71   74    0    0    0
SMALL
USER_CHARGES
NO_NAME
@<TRIPOS>ATOM
1 C1        0.9075     1.5704     0.1556 C.2    1 <0>      -0.1800
2 C2        0.6774     0.2817     0.1089 C.2    1 <0>      -0.1700
3 C3        1.8257    -0.6918     0.1779 C.3    1 <0>       0.0800
4 N4        1.6156    -1.6182     1.2984 N.3    1 <0>      -0.5300
5 C5        1.1280    -0.9057     2.4859 C.3    1 <0>       0.0600
6 C6        0.7795    -1.9180     3.5797 C.3    1 <0>      -0.1000
7 H7       -0.0019    -2.5876     3.2206 H      1 <0>       0.1100
8 C8        0.2931    -1.1878     4.8050 C.2    1 <0>       0.5300
9 O9        1.0325    -1.0360     5.7537 O.2    1 <0>      -0.4900
10 N10      -0.9640    -0.7036     4.8461 N.am   1 <0>      -0.5700
11 C11      -1.8218    -0.7911     3.6617 C.3    1 <0>       0.1100
12 C12      -2.6937    -2.0449     3.7550 C.3    1 <0>      -0.1700
13 C13      -3.5895    -2.1363     2.5181 C.3    1 <0>      -0.0100
14 N14      -4.4266    -3.3402     2.6076 N.4    1 <0>      -0.3900
15 H15      -4.9399    -3.3291     3.4762 H      1 <0>       0.4300
16 C16      -5.3698    -3.3656     1.4817 C.3    1 <0>      -0.0500
17 C17      -3.5731    -4.5348     2.5584 C.3    1 <0>      -0.0500
18 C18      -1.4320    -0.1388     5.9769 C.2    1 <0>       0.6900
19 O19      -2.5980     0.1959     6.0515 O.2    1 <0>      -0.5700
20 N20      -0.6069     0.0547     7.0249 N.am   1 <0>      -0.7200
21 C21      -1.1422     0.5430     8.2981 C.3    1 <0>       0.1200
22 C22       0.0098     0.7924     9.2736 C.3    1 <0>      -0.1700
23 C23       2.0287    -2.7309     3.9296 C.3    1 <0>      -0.1000
24 C24       2.5508    -3.4233     2.6673 C.3    1 <0>      -0.0200
25 H25       1.7928    -4.1139     2.2977 H      1 <0>       0.0900
26 C26       3.7982    -4.1878     2.9917 C.ar   1 <0>      -0.0300
27 C27       4.7325    -4.3189     1.9615 C.ar   1 <0>      -0.1400
28 C28       4.6014    -3.7638     0.6143 C.2    1 <0>      -0.1800
29 C29       5.7004    -4.1284    -0.0278 C.2    1 <0>       0.0600
30 N30       6.5225    -4.8687     0.8086 N.pl3  1 <0>      -0.6000
31 C31       5.9550    -4.9959     2.0404 C.ar   1 <0>       0.1100
32 C32       6.2784    -5.5905     3.2589 C.ar   1 <0>      -0.1200
33 C33       5.3535    -5.4577     4.2857 C.ar   1 <0>      -0.1000
34 C34       4.1425    -4.7771     4.1668 C.ar   1 <0>      -0.1400
35 C35       3.3669    -2.9657     0.2793 C.3    1 <0>      -0.0300
36 C36       2.8405    -2.3727     1.5943 C.3    1 <0>       0.1000
37 H37       3.5821    -1.6703     1.9747 H      1 <0>       0.0500
38 H38       1.9202     1.9353     0.2435 H      1 <0>       0.1000
39 H39       0.0849     2.2682     0.1016 H      1 <0>       0.1000
40 H40      -0.3353    -0.0832     0.0210 H      1 <0>       0.1100
41 H41       1.8811    -1.2550    -0.7537 H      1 <0>       0.1000
42 H42       2.7568    -0.1453     0.3280 H      1 <0>       0.0500
43 H43       1.9033    -0.2309     2.8488 H      1 <0>       0.0500
44 H44       0.2389    -0.3314     2.2255 H      1 <0>       0.0900
45 H45      -2.4592     0.0915     3.6088 H      1 <0>       0.1100
46 H46      -1.2016    -0.8456     2.7671 H      1 <0>       0.1100
47 H47      -2.0563    -2.9275     3.8080 H      1 <0>       0.0900
48 H48      -3.3140    -1.9905     4.6496 H      1 <0>       0.1000
49 H49      -4.2269    -1.2537     2.4651 H      1 <0>       0.1400
50 H50      -2.9693    -2.1908     1.6234 H      1 <0>       0.1400
51 H51      -4.8153    -3.3776     0.5434 H      1 <0>       0.1200
52 H52      -5.9909    -4.2588     1.5481 H      1 <0>       0.1200
53 H53      -6.0031    -2.4792     1.5182 H      1 <0>       0.1200
54 H54      -2.8732    -4.5160     3.3938 H      1 <0>       0.1200
55 H55      -4.1942    -5.4281     2.6248 H      1 <0>       0.1300
56 H56      -3.0186    -4.5468     1.6201 H      1 <0>       0.1300
57 H57       0.3413    -0.1294     6.9361 H      1 <0>       0.4200
58 H58      -1.6849     1.4735     8.1312 H      1 <0>       0.0700
59 H59      -1.8186    -0.2018     8.7175 H      1 <0>       0.0700
60 H60       0.6374     1.5995     8.8959 H      1 <0>       0.0600
61 H61      -0.3927     1.0705    10.2477 H      1 <0>       0.0800
62 H62       0.6053    -0.1152     9.3723 H      1 <0>       0.0600
63 H63       2.7969    -2.0659     4.3242 H      1 <0>       0.0800
64 H64       1.7765    -3.4815     4.6786 H      1 <0>       0.0800
65 H65       5.9242    -3.8848    -1.0559 H      1 <0>       0.1700
66 H66       7.3799    -5.2432     0.5526 H      1 <0>       0.4200
67 H67       7.2045    -6.1285     3.3977 H      1 <0>       0.1300
68 H68       5.5870    -5.9109     5.2378 H      1 <0>       0.1200
69 H69       3.4744    -4.7179     5.0133 H      1 <0>       0.1200
70 H70       3.6236    -2.1612    -0.4099 H      1 <0>       0.0800
71 H71       2.6190    -3.6162    -0.1742 H      1 <0>       0.0800
@<TRIPOS>BOND
1    1    2 2
2    1   38 1
3    1   39 1
4    2    3 1
5    2   40 1
6    3    4 1
7    3   41 1
8    3   42 1
9    4   36 1
10    4    5 1
11    5    6 1
12    5   43 1
13    5   44 1
14    6    7 1
15    6    8 1
16    6   23 1
17    8    9 2
18    8   10 am
19   10   11 1
20   10   18 am
21   11   12 1
22   11   45 1
23   11   46 1
24   12   13 1
25   12   47 1
26   12   48 1
27   13   14 1
28   13   49 1
29   13   50 1
30   14   15 1
31   14   16 1
32   14   17 1
33   16   51 1
34   16   52 1
35   16   53 1
36   17   54 1
37   17   55 1
38   17   56 1
39   18   19 2
40   18   20 am
41   20   21 1
42   20   57 1
43   21   22 1
44   21   58 1
45   21   59 1
46   22   60 1
47   22   61 1
48   22   62 1
49   23   24 1
50   23   63 1
51   23   64 1
52   24   25 1
53   24   36 1
54   24   26 1
55   26   34 ar
56   26   27 ar
57   27   31 ar
58   27   28 1
59   28   29 2
60   28   35 1
61   29   30 1
62   29   65 1
63   30   31 1
64   30   66 1
65   31   32 ar
66   32   33 ar
67   32   67 1
68   33   34 ar
69   33   68 1
70   34   69 1
71   35   36 1
72   35   70 1
73   35   71 1
74   36   37 1
