@<TRIPOS>MOLECULE
ZINC000084758235
60    63    1     0     0
SMALL
USER_CHARGES
@<TRIPOS>ATOM
1      C1      1.5804    1.2189    0.1973 C.3      1 ZINC000084758235   -0.0800
2      C2      0.9097   -0.1240    0.0637 C.2      1 ZINC000084758235    0.0900
3      N3      1.0684   -0.9655   -0.9260 N.2      1 ZINC000084758235   -0.2900
4      N4      0.2743   -2.0919   -0.6747 N.pl3    1 ZINC000084758235   -0.3400
5      C5      0.1628   -3.2225   -1.4959 C.ar     1 ZINC000084758235    0.2000
6      C6      0.2819   -4.4930   -0.9498 C.ar     1 ZINC000084758235   -0.1200
7      C7      0.1715   -5.6061   -1.7623 C.ar     1 ZINC000084758235    0.0000
8      Cl8     0.3203   -7.1958   -1.0809 Cl       1 ZINC000084758235   -0.0400
9      C9     -0.0581   -5.4537   -3.1184 C.ar     1 ZINC000084758235   -0.1100
10     C10    -0.1771   -4.1888   -3.6643 C.ar     1 ZINC000084758235   -0.0500
11     C11    -0.0728   -3.0736   -2.8563 C.ar     1 ZINC000084758235   -0.1100
12     C12    -0.2027   -1.6957   -3.4526 C.3      1 ZINC000084758235    0.0900
13     H13     0.4514   -1.0059   -2.9193 H        1 ZINC000084758235    0.1700
14     O14     0.1704   -1.7363   -4.8314 O.3      1 ZINC000084758235   -0.2700
15     C15     0.7111   -0.6096   -5.3559 C.ar     1 ZINC000084758235    0.4000
16     C16     1.0946   -0.5685   -6.6931 C.ar     1 ZINC000084758235   -0.2900
17     C17     1.6457    0.6120   -7.1886 C.ar     1 ZINC000084758235    0.2900
18     C18     2.0699    0.7070   -8.6067 C.ar     1 ZINC000084758235   -0.0500
19     C19     1.9146   -0.3856   -9.4579 C.ar     1 ZINC000084758235   -0.0800
20     C20     2.3112   -0.2916  -10.7764 C.ar     1 ZINC000084758235   -0.1500
21     C21     2.8619    0.8841  -11.2537 C.ar     1 ZINC000084758235   -0.0900
22     C22     3.2929    0.9806  -12.6945 C.3      1 ZINC000084758235   -0.0900
23     C23     2.1236    1.4822  -13.5442 C.3      1 ZINC000084758235   -0.0400
24     H24     1.7560    2.4239  -13.1365 H        1 ZINC000084758235    0.1300
25     N25     1.0436    0.4866  -13.5275 N.4      1 ZINC000084758235   -0.6100
26     H26     0.7327    0.3436  -12.5783 H        1 ZINC000084758235    0.4100
27     H27     0.2725    0.8174  -14.0878 H        1 ZINC000084758235    0.4300
28     H28     1.3840   -0.3851  -13.9048 H        1 ZINC000084758235    0.4300
29     C29     2.5881    1.6958  -14.9618 C.2      1 ZINC000084758235    0.4900
30     O30     2.2022    0.9529  -15.8482 O.co2    1 ZINC000084758235   -0.6700
31     O31     3.3499    2.6114  -15.2223 O.co2    1 ZINC000084758235   -0.6300
32     C32     3.0179    1.9719  -10.4135 C.ar     1 ZINC000084758235   -0.1100
33     C33     2.6201    1.8910   -9.0945 C.ar     1 ZINC000084758235   -0.0600
34     N34     1.7855    1.6543   -6.3701 N.ar     1 ZINC000084758235   -0.5800
35     C35     1.4084    1.5758   -5.1038 C.ar     1 ZINC000084758235    0.6200
36     N36     1.5687    2.6792   -4.2837 N.pl3    1 ZINC000084758235   -0.8100
37     N37     0.8765    0.4711   -4.6017 N.ar     1 ZINC000084758235   -0.6100
38     C38    -1.6523   -1.2217   -3.3302 C.3      1 ZINC000084758235    0.4400
39     F39    -2.0176   -1.1820   -1.9803 F        1 ZINC000084758235   -0.1700
40     F40    -1.7729    0.0575   -3.8838 F        1 ZINC000084758235   -0.1700
41     F41    -2.4918   -2.1071   -4.0147 F        1 ZINC000084758235   -0.1700
42     C42    -0.3655   -1.8954    0.5003 C.2      1 ZINC000084758235    0.0700
43     C43     0.0148   -0.6884    0.9794 C.2      1 ZINC000084758235   -0.2500
44     H44     2.5271    1.1014    0.7247 H        1 ZINC000084758235    0.0800
45     H45     1.7656    1.6327   -0.7939 H        1 ZINC000084758235    0.0700
46     H46     0.9336    1.8939    0.7578 H        1 ZINC000084758235    0.0800
47     H47     0.4611   -4.6118    0.1086 H        1 ZINC000084758235    0.1500
48     H48    -0.1441   -6.3244   -3.7517 H        1 ZINC000084758235    0.1500
49     H49    -0.3559   -4.0729   -4.7230 H        1 ZINC000084758235    0.1500
50     H50     0.9687   -1.4305   -7.3313 H        1 ZINC000084758235    0.1500
51     H51     1.4851   -1.3042   -9.0863 H        1 ZINC000084758235    0.1400
52     H52     2.1917   -1.1378  -11.4368 H        1 ZINC000084758235    0.1300
53     H53     4.1277    1.6765  -12.7782 H        1 ZINC000084758235    0.1200
54     H54     3.6030   -0.0029  -13.0476 H        1 ZINC000084758235    0.0900
55     H55     3.4485    2.8874  -10.7914 H        1 ZINC000084758235    0.1400
56     H56     2.7420    2.7410   -8.4394 H        1 ZINC000084758235    0.1400
57     H57     1.9530    3.4958   -4.6390 H        1 ZINC000084758235    0.4200
58     H58     1.2967    2.6358   -3.3536 H        1 ZINC000084758235    0.4200
59     H59    -1.0536   -2.5804    0.9732 H        1 ZINC000084758235    0.1800
60     H60    -0.3188   -0.2373    1.9022 H        1 ZINC000084758235    0.1600
@<TRIPOS>BOND
1     1     2     1
2     1     44    1
3     1     45    1
4     1     46    1
5     2     43    1
6     2     3     2
7     3     4     1
8     4     5     1
9     4     42    1
10    5     11    ar
11    5     6     ar
12    6     7     ar
13    6     47    1
14    7     8     1
15    7     9     ar
16    9     10    ar
17    9     48    1
18    10    11    ar
19    10    49    1
20    11    12    1
21    12    13    1
22    12    14    1
23    12    38    1
24    14    15    1
25    15    37    ar
26    15    16    ar
27    16    17    ar
28    16    50    1
29    17    18    1
30    17    34    ar
31    18    33    ar
32    18    19    ar
33    19    20    ar
34    19    51    1
35    20    21    ar
36    20    52    1
37    21    22    1
38    21    32    ar
39    22    23    1
40    22    53    1
41    22    54    1
42    23    24    1
43    23    25    1
44    23    29    1
45    25    26    1
46    25    27    1
47    25    28    1
48    29    30    ar
49    29    31    ar
50    32    33    ar
51    32    55    1
52    33    56    1
53    34    35    ar
54    35    36    1
55    35    37    ar
56    36    57    1
57    36    58    1
58    38    39    1
59    38    40    1
60    38    41    1
61    42    43    2
62    42    59    1
63    43    60    1
@<TRIPOS>SUBSTRUCTURE
1   ZINC000084758235 1     RESIDUE    1   A     ZIN   1
