@<TRIPOS>MOLECULE
ZINC000000608101
37   39    0    0    0
SMALL
USER_CHARGES
NO_NAME
@<TRIPOS>ATOM
1 Cl1       0.0021    -0.0041     0.0020 Cl     1 <0>      -0.0100
2 C2       -0.0215     1.7317     0.0116 C.2    1 <0>      -0.1600
3 C3       -1.1225     2.4865     0.0319 C.2    1 <0>      -0.1000
4 C4       -2.5094     1.8973     0.0495 C.3    1 <0>       0.1200
5 O5       -3.4744     2.9511     0.0700 O.3    1 <0>      -0.3600
6 C6       -4.8295     2.4980     0.0878 C.3    1 <0>       0.1200
7 H7       -4.8843     1.5358     0.5970 H      1 <0>       0.0900
8 C8       -5.3349     2.3445    -1.3482 C.3    1 <0>       0.0700
9 N9       -4.5804     1.2839    -2.0206 N.pl3  1 <0>      -0.4100
10 C10      -3.4187     1.4370    -2.7283 C.2    1 <0>       0.0300
11 C11      -3.0694     0.2148    -3.1729 C.2    1 <0>       0.0000
12 N12      -3.9925    -0.6607    -2.7483 N.pl3  1 <0>      -0.4700
13 H13      -3.9861    -1.6142    -2.9266 H      1 <0>       0.4700
14 C14      -4.8980    -0.0282    -2.0532 C.cat  1 <0>       0.2900
15 C15      -5.6852     3.5016     0.8169 C.ar   1 <0>      -0.1000
16 C16      -5.2938     4.8254     0.8821 C.ar   1 <0>      -0.0600
17 C17      -6.0780     5.7465     1.5511 C.ar   1 <0>      -0.1000
18 C18      -7.2554     5.3437     2.1554 C.ar   1 <0>      -0.0100
19 Cl19     -8.2403     6.5007     2.9950 Cl     1 <0>      -0.0400
20 C20      -7.6481     4.0187     2.0901 C.ar   1 <0>      -0.1000
21 C21      -6.8657     3.0985     1.4161 C.ar   1 <0>      -0.0100
22 Cl22     -7.3578     1.4358     1.3331 Cl     1 <0>      -0.0500
23 C23      -0.8929     3.8520     0.0362 C.2    1 <0>      -0.1200
24 C24       0.3927     4.2058     0.0194 C.2    1 <0>      -0.2000
25 S25       1.4016     2.7653     0.0035 S.3    1 <0>       0.1900
26 H26      -2.6564     1.2874    -0.8419 H      1 <0>       0.0600
27 H27      -2.6296     1.2773     0.9378 H      1 <0>       0.0700
28 H28      -6.3935     2.0850    -1.3350 H      1 <0>       0.1300
29 H29      -5.1977     3.2837    -1.8840 H      1 <0>       0.1400
30 H30      -2.8851     2.3606    -2.8978 H      1 <0>       0.2200
31 H31      -2.1985    -0.0194    -3.7671 H      1 <0>       0.2300
32 H32      -5.7619    -0.4785    -1.5870 H      1 <0>       0.2600
33 H33      -4.3746     5.1403     0.4104 H      1 <0>       0.1500
34 H34      -5.7712     6.7808     1.6023 H      1 <0>       0.1500
35 H35      -8.5672     3.7037     2.5617 H      1 <0>       0.1500
36 H36      -1.6943     4.5757     0.0517 H      1 <0>       0.1600
37 H37       0.7586     5.2220     0.0191 H      1 <0>       0.1800
@<TRIPOS>BOND
1    1    2 1
2    2   25 1
3    2    3 2
4    3    4 1
5    3   23 1
6    4    5 1
7    4   26 1
8    4   27 1
9    5    6 1
10    6    7 1
11    6    8 1
12    6   15 1
13    8    9 1
14    8   28 1
15    8   29 1
16    9   14 ar
17    9   10 1
18   10   11 2
19   10   30 1
20   11   12 1
21   11   31 1
22   12   13 1
23   12   14 ar
24   14   32 1
25   15   21 ar
26   15   16 ar
27   16   17 ar
28   16   33 1
29   17   18 ar
30   17   34 1
31   18   19 1
32   18   20 ar
33   20   21 ar
34   20   35 1
35   21   22 1
36   23   24 2
37   23   36 1
38   24   25 1
39   24   37 1
