@<TRIPOS>MOLECULE
ZINC000008101127
100   105   1     0     0
SMALL
USER_CHARGES
@<TRIPOS>ATOM
1      C1      1.9621   -2.8520   -0.7142 C.3      1 ZINC000008101127   -0.1400
2      C2      1.9888   -1.3491   -0.4291 C.3      1 ZINC000008101127   -0.0200
3      C3      3.3223   -0.7411   -0.8685 C.3      1 ZINC000008101127   -0.1400
4      C4      0.8282   -0.6538   -1.1123 C.2      1 ZINC000008101127    0.3000
5      C5      0.5864   -0.5993   -2.4917 C.2      1 ZINC000008101127   -0.2900
6      C6      1.4780   -1.1730   -3.3702 C.2      1 ZINC000008101127    0.1100
7      C7      1.2920   -1.0288   -4.7501 C.2      1 ZINC000008101127   -0.2600
8      C8      2.1839   -1.6026   -5.6288 C.2      1 ZINC000008101127    0.0800
9      C9      3.2771   -2.3306   -5.1416 C.2      1 ZINC000008101127   -0.2800
10     C10     4.1610   -2.8993   -6.0125 C.2      1 ZINC000008101127    0.0700
11     C11     3.9742   -2.7544   -7.3992 C.2      1 ZINC000008101127   -0.3000
12     C12     4.8505   -3.3183   -8.2626 C.2      1 ZINC000008101127    0.2600
13     N13     4.8054   -3.2599   -9.6288 N.pl3    1 ZINC000008101127   -0.5100
14     C14     3.7683   -2.5550  -10.3863 C.3      1 ZINC000008101127    0.1000
15     C15     4.2054   -1.1084  -10.6251 C.3      1 ZINC000008101127   -0.1300
16     C16     3.1223   -0.3723  -11.4162 C.3      1 ZINC000008101127   -0.1000
17     C17     3.5594    1.0744  -11.6550 C.3      1 ZINC000008101127   -0.6800
18     S18     2.2753    1.9471  -12.5930 S.o2     1 ZINC000008101127    2.6400
19     O19     2.7052    3.3195  -12.8116 O.co2    1 ZINC000008101127   -1.0700
20     O20     2.0857    1.2728  -13.8679 O.co2    1 ZINC000008101127   -1.0600
21     O21     1.0388    1.9260  -11.8269 O.co2    1 ZINC000008101127   -1.0600
22     C22     5.8653   -3.9514  -10.2131 C.ar     1 ZINC000008101127    0.1500
23     C23     6.1860   -4.1355  -11.5709 C.ar     1 ZINC000008101127   -0.1200
24     C24     7.2760   -4.8514  -11.9461 C.ar     1 ZINC000008101127   -0.0600
25     C25     8.1120   -5.4272  -10.9743 C.ar     1 ZINC000008101127   -0.0700
26     C26     9.2464   -6.1729  -11.3347 C.ar     1 ZINC000008101127   -0.0900
27     C27    10.0327   -6.7151  -10.3648 C.ar     1 ZINC000008101127   -0.1200
28     C28     9.7296   -6.5425   -9.0155 C.ar     1 ZINC000008101127   -0.1000
29     C29     8.6391   -5.8266   -8.6282 C.ar     1 ZINC000008101127   -0.1200
30     C30     7.8030   -5.2506   -9.6011 C.ar     1 ZINC000008101127    0.0100
31     C31     6.6717   -4.5070   -9.2433 C.ar     1 ZINC000008101127   -0.1400
32     C32     6.0766   -4.1317   -7.9059 C.3      1 ZINC000008101127   -0.0100
33     C33     7.0647   -3.2888   -7.0972 C.3      1 ZINC000008101127   -0.1400
34     C34     5.6768   -5.3861   -7.1263 C.3      1 ZINC000008101127   -0.1400
35     N35     0.0943   -0.1135   -0.1727 N.2      1 ZINC000008101127   -0.4100
36     C36    -1.1254    0.6496   -0.4492 C.3      1 ZINC000008101127    0.0600
37     C37    -2.3341   -0.0978    0.1176 C.3      1 ZINC000008101127   -0.1300
38     C38    -3.6078    0.6991   -0.1711 C.3      1 ZINC000008101127   -0.1000
39     C39    -4.8165   -0.0484    0.3957 C.3      1 ZINC000008101127   -0.6800
40     S40    -6.3267    0.8964    0.0533 S.o2     1 ZINC000008101127    2.6400
41     O41    -7.4657    0.1737    0.5978 O.co2    1 ZINC000008101127   -1.0600
42     O42    -6.2155    2.2030    0.6832 O.co2    1 ZINC000008101127   -1.0600
43     O43    -6.4704    1.0455   -1.3865 O.co2    1 ZINC000008101127   -1.0600
44     C44     0.5688   -0.3260    1.0839 C.ar     1 ZINC000008101127    0.0900
45     C45     0.0661    0.0886    2.3394 C.ar     1 ZINC000008101127   -0.1100
46     C46     0.7032   -0.2366    3.4900 C.ar     1 ZINC000008101127   -0.0700
47     C47     1.8859   -0.9979    3.4594 C.ar     1 ZINC000008101127   -0.0500
48     C48     2.5600   -1.3447    4.6407 C.ar     1 ZINC000008101127   -0.1000
49     C49     3.7023   -2.0831    4.5748 C.ar     1 ZINC000008101127   -0.1100
50     C50     4.2160   -2.5024    3.3491 C.ar     1 ZINC000008101127   -0.1000
51     C51     3.5909   -2.1861    2.1826 C.ar     1 ZINC000008101127   -0.1100
52     C52     2.4081   -1.4245    2.2094 C.ar     1 ZINC000008101127   -0.0100
53     C53     1.7361   -1.0791    1.0365 C.ar     1 ZINC000008101127   -0.1000
54     H54     0.9862   -3.2557   -0.4448 H        1 ZINC000008101127    0.0700
55     H55     2.1463   -3.0240   -1.7747 H        1 ZINC000008101127    0.0800
56     H56     2.7350   -3.3471   -0.1263 H        1 ZINC000008101127    0.0900
57     H57     3.4649   -0.9108   -1.9357 H        1 ZINC000008101127    0.0800
58     H58     3.3164    0.3305   -0.6687 H        1 ZINC000008101127    0.0700
59     H59     4.1355   -1.2096   -0.3142 H        1 ZINC000008101127    0.0900
60     H60    -0.2994   -0.1073   -2.8656 H        1 ZINC000008101127    0.1500
61     H61     2.3208   -1.7342   -2.9946 H        1 ZINC000008101127    0.1300
62     H62     0.4492   -0.4675   -5.1257 H        1 ZINC000008101127    0.1400
63     H63     2.0404   -1.4913   -6.6934 H        1 ZINC000008101127    0.1400
64     H64     3.4205   -2.4418   -4.0770 H        1 ZINC000008101127    0.1200
65     H65     5.0039   -3.4606   -5.6369 H        1 ZINC000008101127    0.1300
66     H66     3.1314   -2.1932   -7.7747 H        1 ZINC000008101127    0.1400
67     H67     3.6174   -3.0519  -11.3447 H        1 ZINC000008101127    0.1000
68     H68     2.8361   -2.5644   -9.8215 H        1 ZINC000008101127    0.1000
69     H69     4.3563   -0.6115   -9.6667 H        1 ZINC000008101127    0.0700
70     H70     5.1376   -1.0990  -11.1899 H        1 ZINC000008101127    0.0700
71     H71     2.9714   -0.8691  -12.3746 H        1 ZINC000008101127    0.0800
72     H72     2.1901   -0.3816  -10.8514 H        1 ZINC000008101127    0.0800
73     H73     3.7103    1.5712  -10.6966 H        1 ZINC000008101127    0.1000
74     H74     4.4916    1.0837  -12.2198 H        1 ZINC000008101127    0.1000
75     H75     5.5523   -3.6991  -12.3288 H        1 ZINC000008101127    0.1300
76     H76     7.5014   -4.9793  -12.9946 H        1 ZINC000008101127    0.1400
77     H77     9.4935   -6.3156  -12.3764 H        1 ZINC000008101127    0.1300
78     H78    10.9043   -7.2880  -10.6451 H        1 ZINC000008101127    0.1200
79     H79    10.3696   -6.9840   -8.2658 H        1 ZINC000008101127    0.1200
80     H80     8.4166   -5.7017   -7.5788 H        1 ZINC000008101127    0.1300
81     H81     7.3009   -2.3781   -7.6476 H        1 ZINC000008101127    0.0700
82     H82     6.6191   -3.0279   -6.1372 H        1 ZINC000008101127    0.0700
83     H83     7.9781   -3.8598   -6.9305 H        1 ZINC000008101127    0.0800
84     H84     6.5574   -6.0067   -6.9604 H        1 ZINC000008101127    0.0800
85     H85     5.2502   -5.0965   -6.1660 H        1 ZINC000008101127    0.0700
86     H86     4.9381   -5.9486   -7.6972 H        1 ZINC000008101127    0.0700
87     H87    -1.0534    1.6316    0.0184 H        1 ZINC000008101127    0.1100
88     H88    -1.2437    0.7678   -1.5263 H        1 ZINC000008101127    0.1200
89     H89    -2.4060   -1.0798   -0.3499 H        1 ZINC000008101127    0.0700
90     H90    -2.2158   -0.2160    1.1947 H        1 ZINC000008101127    0.0800
91     H91    -3.5359    1.6811    0.2964 H        1 ZINC000008101127    0.0800
92     H92    -3.7261    0.8173   -1.2482 H        1 ZINC000008101127    0.0800
93     H93    -4.8885   -1.0304   -0.0718 H        1 ZINC000008101127    0.1000
94     H94    -4.6982   -0.1666    1.4728 H        1 ZINC000008101127    0.1000
95     H95    -0.8403    0.6743    2.3814 H        1 ZINC000008101127    0.1400
96     H96     0.3006    0.0911    4.4371 H        1 ZINC000008101127    0.1500
97     H97     2.1744   -1.0268    5.5981 H        1 ZINC000008101127    0.1400
98     H98     4.2181   -2.3475    5.4862 H        1 ZINC000008101127    0.1300
99     H99     5.1239   -3.0868    3.3246 H        1 ZINC000008101127    0.1300
100    H100    4.0011   -2.5178    1.2402 H        1 ZINC000008101127    0.1300
@<TRIPOS>BOND
1     1     2     1
2     1     54    1
3     1     55    1
4     1     56    1
5     2     53    1
6     2     3     1
7     2     4     1
8     3     57    1
9     3     58    1
10    3     59    1
11    4     5     1
12    4     35    2
13    5     6     2
14    5     60    1
15    6     7     1
16    6     61    1
17    7     8     2
18    7     62    1
19    8     9     1
20    8     63    1
21    9     10    2
22    9     64    1
23    10    11    1
24    10    65    1
25    11    12    2
26    11    66    1
27    12    32    1
28    12    13    1
29    13    14    1
30    13    22    1
31    14    15    1
32    14    67    1
33    14    68    1
34    15    16    1
35    15    69    1
36    15    70    1
37    16    17    1
38    16    71    1
39    16    72    1
40    17    18    1
41    17    73    1
42    17    74    1
43    18    19    ar
44    18    20    ar
45    18    21    ar
46    22    31    ar
47    22    23    ar
48    23    24    ar
49    23    75    1
50    24    25    ar
51    24    76    1
52    25    30    ar
53    25    26    ar
54    26    27    ar
55    26    77    1
56    27    28    ar
57    27    78    1
58    28    29    ar
59    28    79    1
60    29    30    ar
61    29    80    1
62    30    31    ar
63    31    32    1
64    32    33    1
65    32    34    1
66    33    81    1
67    33    82    1
68    33    83    1
69    34    84    1
70    34    85    1
71    34    86    1
72    35    36    1
73    35    44    1
74    36    37    1
75    36    87    1
76    36    88    1
77    37    38    1
78    37    89    1
79    37    90    1
80    38    39    1
81    38    91    1
82    38    92    1
83    39    40    1
84    39    93    1
85    39    94    1
86    40    41    ar
87    40    42    ar
88    40    43    ar
89    44    53    ar
90    44    45    ar
91    45    46    ar
92    45    95    1
93    46    47    ar
94    46    96    1
95    47    52    ar
96    47    48    ar
97    48    49    ar
98    48    97    1
99    49    50    ar
100   49    98    1
101   50    51    ar
102   50    99    1
103   51    52    ar
104   51    100   1
105   52    53    ar
@<TRIPOS>SUBSTRUCTURE
1   ZINC000008101127 1     RESIDUE    1   A     ZIN   1
