@<TRIPOS>MOLECULE
ZINC000000394284
28    28    1     0     0
SMALL
USER_CHARGES
@<TRIPOS>ATOM
1      C1     -0.0173    1.4248    0.0099 C.3      1 ZINC000000394284    0.0300
2      O2      0.0021   -0.0041    0.0020 O.3      1 ZINC000000394284   -0.3100
3      C3     -1.2011   -0.6379    0.0101 C.ar     1 ZINC000000394284    0.1000
4      C4     -2.3739    0.0992    0.0195 C.ar     1 ZINC000000394284   -0.1700
5      C5     -3.5965   -0.5469    0.0272 C.ar     1 ZINC000000394284   -0.1200
6      C6     -3.6519   -1.9279    0.0261 C.ar     1 ZINC000000394284   -0.1200
7      C7     -2.4848   -2.6697    0.0172 C.ar     1 ZINC000000394284   -0.1800
8      C8     -1.2569   -2.0287    0.0032 C.ar     1 ZINC000000394284    0.1000
9      O9     -0.1082   -2.7567   -0.0056 O.3      1 ZINC000000394284   -0.2900
10     C10    -0.2418   -4.1795    0.0004 C.3      1 ZINC000000394284    0.0300
11     C11     1.1466   -4.8221   -0.0110 C.3      1 ZINC000000394284    0.1100
12     H12     1.7157   -4.4426   -0.8596 H        1 ZINC000000394284    0.1200
13     O13     1.8299   -4.5015    1.2025 O.3      1 ZINC000000394284   -0.5400
14     C14     1.0047   -6.3408   -0.1303 C.3      1 ZINC000000394284    0.0500
15     O15     2.2995   -6.9317   -0.2580 O.3      1 ZINC000000394284   -0.5600
16     H16     1.0053    1.8021    0.0021 H        1 ZINC000000394284    0.1000
17     H17    -0.5445    1.7859   -0.8732 H        1 ZINC000000394284    0.0600
18     H18    -0.5275    1.7763    0.9067 H        1 ZINC000000394284    0.0600
19     H19    -2.3334    1.1784    0.0211 H        1 ZINC000000394284    0.1400
20     H20    -4.5102    0.0290    0.0345 H        1 ZINC000000394284    0.1300
21     H21    -4.6086   -2.4288    0.0325 H        1 ZINC000000394284    0.1300
22     H22    -2.5308   -3.7487    0.0170 H        1 ZINC000000394284    0.1300
23     H23    -0.7787   -4.4902    0.8967 H        1 ZINC000000394284    0.0700
24     H24    -0.7960   -4.4961   -0.8832 H        1 ZINC000000394284    0.0700
25     H25     1.3794   -4.8095    2.0007 H        1 ZINC000000394284    0.3700
26     H26     0.5136   -6.7310    0.7612 H        1 ZINC000000394284    0.0500
27     H27     0.4070   -6.5819   -1.0093 H        1 ZINC000000394284    0.0600
28     H28     2.2860   -7.8953   -0.3384 H        1 ZINC000000394284    0.3800
@<TRIPOS>BOND
1     1     2     1
2     1     16    1
3     1     17    1
4     1     18    1
5     2     3     1
6     3     8     ar
7     3     4     ar
8     4     5     ar
9     4     19    1
10    5     6     ar
11    5     20    1
12    6     7     ar
13    6     21    1
14    7     8     ar
15    7     22    1
16    8     9     1
17    9     10    1
18    10    11    1
19    10    23    1
20    10    24    1
21    11    12    1
22    11    13    1
23    11    14    1
24    13    25    1
25    14    15    1
26    14    26    1
27    14    27    1
28    15    28    1
@<TRIPOS>SUBSTRUCTURE
1   ZINC000000394284 1     RESIDUE    1   A     ZIN   1
