@<TRIPOS>MOLECULE
ZINC000000003642
41    43    1     0     0
SMALL
USER_CHARGES
@<TRIPOS>ATOM
1      C1      0.6968   -0.4191   -0.1683 C.3      1 ZINC000000003642   -0.1400
2      C2      0.3265   -1.8718   -0.4742 C.3      1 ZINC000000003642   -0.0800
3      C3     -1.1652   -2.0466   -0.3505 C.ar     1 ZINC000000003642   -0.0900
4      C4     -1.9925   -1.7547   -1.4290 C.ar     1 ZINC000000003642    0.1000
5      N5     -1.7538   -1.2991   -2.7085 N.pl3    1 ZINC000000003642   -0.5700
6      C6     -2.9313   -1.1758   -3.3842 C.2      1 ZINC000000003642    0.1100
7      C7     -3.9538   -1.5391   -2.5817 C.2      1 ZINC000000003642   -0.1700
8      C8     -5.3973   -1.5209   -3.0154 C.3      1 ZINC000000003642   -0.0700
9      C9     -5.4905   -0.6796   -4.2972 C.3      1 ZINC000000003642    0.0600
10     O10    -4.4645   -1.0840   -5.2079 O.3      1 ZINC000000003642   -0.3300
11     C11    -3.1388   -0.7137   -4.8083 C.3      1 ZINC000000003642    0.2100
12     C12    -2.9808    0.8061   -4.8874 C.3      1 ZINC000000003642   -0.1400
13     C13    -3.2275    1.2704   -6.3242 C.3      1 ZINC000000003642   -0.1500
14     C14    -2.1157   -1.3886   -5.7241 C.3      1 ZINC000000003642   -0.1800
15     C15    -2.2843   -2.8843   -5.6494 C.2      1 ZINC000000003642    0.4900
16     O16    -3.2092   -3.3626   -5.0150 O.co2    1 ZINC000000003642   -0.6600
17     O17    -1.4959   -3.6161   -6.2234 O.co2    1 ZINC000000003642   -0.7200
18     C18    -3.3857   -1.9238   -1.2972 C.ar     1 ZINC000000003642   -0.0800
19     C19    -3.9163   -2.3812   -0.0890 C.ar     1 ZINC000000003642   -0.0800
20     C20    -3.0841   -2.6624    0.9571 C.ar     1 ZINC000000003642   -0.1500
21     C21    -1.7115   -2.5014    0.8298 C.ar     1 ZINC000000003642   -0.1100
22     H22     1.7758   -0.2927   -0.2577 H        1 ZINC000000003642    0.0500
23     H23     0.1939    0.2406   -0.8753 H        1 ZINC000000003642    0.0500
24     H24     0.3847   -0.1704    0.8460 H        1 ZINC000000003642    0.0600
25     H25     0.6386   -2.1205   -1.4885 H        1 ZINC000000003642    0.0600
26     H26     0.8295   -2.5315    0.2328 H        1 ZINC000000003642    0.0700
27     H27    -0.8783   -1.0961   -3.0733 H        1 ZINC000000003642    0.4100
28     H28    -5.7356   -2.5375   -3.2156 H        1 ZINC000000003642    0.0800
29     H29    -6.0120   -1.0734   -2.2344 H        1 ZINC000000003642    0.0700
30     H30    -6.4662   -0.8286   -4.7595 H        1 ZINC000000003642    0.0900
31     H31    -5.3625    0.3743   -4.0502 H        1 ZINC000000003642    0.0400
32     H32    -3.7024    1.2814   -4.2230 H        1 ZINC000000003642    0.0600
33     H33    -1.9709    1.0827   -4.5845 H        1 ZINC000000003642    0.0600
34     H34    -3.2314    2.3599   -6.3583 H        1 ZINC000000003642    0.0500
35     H35    -2.4364    0.8895   -6.9700 H        1 ZINC000000003642    0.0600
36     H36    -4.1905    0.8927   -6.6678 H        1 ZINC000000003642    0.0600
37     H37    -2.2717   -1.0562   -6.7504 H        1 ZINC000000003642    0.0700
38     H38    -1.1089   -1.1201   -5.4043 H        1 ZINC000000003642    0.0600
39     H39    -4.9830   -2.5120    0.0182 H        1 ZINC000000003642    0.1100
40     H40    -3.4974   -3.0160    1.8901 H        1 ZINC000000003642    0.1100
41     H41    -1.0662   -2.7283    1.6656 H        1 ZINC000000003642    0.1200
@<TRIPOS>BOND
1     1     2     1
2     1     22    1
3     1     23    1
4     1     24    1
5     2     3     1
6     2     25    1
7     2     26    1
8     3     21    ar
9     3     4     ar
10    4     18    ar
11    4     5     1
12    5     6     1
13    5     27    1
14    6     11    1
15    6     7     2
16    7     8     1
17    7     18    1
18    8     9     1
19    8     28    1
20    8     29    1
21    9     10    1
22    9     30    1
23    9     31    1
24    10    11    1
25    11    12    1
26    11    14    1
27    12    13    1
28    12    32    1
29    12    33    1
30    13    34    1
31    13    35    1
32    13    36    1
33    14    15    1
34    14    37    1
35    14    38    1
36    15    16    ar
37    15    17    ar
38    18    19    ar
39    19    20    ar
40    19    39    1
41    20    21    ar
42    20    40    1
43    21    41    1
@<TRIPOS>SUBSTRUCTURE
1   ZINC000000003642 1     RESIDUE    1   A     ZIN   1
