@<TRIPOS>MOLECULE
ZINC000001539579
53    55    1     0     0
SMALL
USER_CHARGES
@<TRIPOS>ATOM
1      C1     -0.0161    1.3353    0.0094 C.2      1 ZINC000001539579   -0.1800
2      C2      0.0021   -0.0041    0.0020 C.2      1 ZINC000001539579   -0.0300
3      C3     -1.2706   -0.7621    0.0101 C.ar     1 ZINC000001539579   -0.0700
4      C4     -1.6004   -1.5594    1.1076 C.ar     1 ZINC000001539579   -0.1200
5      C5     -2.7782   -2.2613    1.1167 C.ar     1 ZINC000001539579   -0.0900
6      C6     -3.6495   -2.1782    0.0256 C.ar     1 ZINC000001539579   -0.1300
7      C7     -4.9160   -2.9315    0.0341 C.2      1 ZINC000001539579    0.5200
8      O8     -5.2058   -3.6300    0.9956 O.co2    1 ZINC000001539579   -0.6900
9      O9     -5.6775   -2.8584   -0.9204 O.co2    1 ZINC000001539579   -0.6900
10     C10    -3.3177   -1.3788   -1.0734 C.ar     1 ZINC000001539579   -0.0900
11     C11    -2.1417   -0.6740   -1.0773 C.ar     1 ZINC000001539579   -0.1200
12     C12     1.2964   -0.7281   -0.0142 C.ar     1 ZINC000001539579   -0.0400
13     C13     1.7643   -1.3525    1.1369 C.ar     1 ZINC000001539579   -0.1000
14     C14     2.9729   -2.0329    1.1258 C.ar     1 ZINC000001539579   -0.0700
15     C15     3.7142   -2.0935   -0.0342 C.ar     1 ZINC000001539579   -0.0600
16     C16     3.2509   -1.4666   -1.1856 C.ar     1 ZINC000001539579   -0.1200
17     C17     2.0503   -0.7926   -1.1851 C.ar     1 ZINC000001539579   -0.0700
18     C18     1.5592   -0.1189   -2.4405 C.3      1 ZINC000001539579   -0.1200
19     C19     5.0265   -2.8290   -0.1189 C.3      1 ZINC000001539579   -0.0200
20     C20     4.8082   -4.1708   -0.8210 C.3      1 ZINC000001539579   -0.1400
21     C21     6.0219   -1.9934   -0.9262 C.3      1 ZINC000001539579   -0.1400
22     C22     5.5945   -3.0776    1.2768 C.3      1 ZINC000001539579   -0.1100
23     C23     4.5019   -3.7250    2.1357 C.3      1 ZINC000001539579   -0.1100
24     C24     3.4226   -2.6797    2.4100 C.3      1 ZINC000001539579   -0.0200
25     C25     3.9851   -1.6072    3.3450 C.3      1 ZINC000001539579   -0.1400
26     C26     2.2250   -3.3551    3.0811 C.3      1 ZINC000001539579   -0.1400
27     H27     0.9118    1.8879    0.0035 H        1 ZINC000001539579    0.1000
28     H28    -0.9586    1.8625    0.0167 H        1 ZINC000001539579    0.1100
29     H29    -0.9272   -1.6237    1.9497 H        1 ZINC000001539579    0.1100
30     H30    -3.0328   -2.8783    1.9657 H        1 ZINC000001539579    0.1300
31     H31    -3.9895   -1.3137   -1.9165 H        1 ZINC000001539579    0.1300
32     H32    -1.8852   -0.0567   -1.9256 H        1 ZINC000001539579    0.1100
33     H33     1.1827   -1.3072    2.0458 H        1 ZINC000001539579    0.1200
34     H34     3.8375   -1.5121   -2.0913 H        1 ZINC000001539579    0.1200
35     H35     0.9559   -0.8201   -3.0170 H        1 ZINC000001539579    0.0700
36     H36     0.9542    0.7480   -2.1747 H        1 ZINC000001539579    0.0700
37     H37     2.4124    0.2028   -3.0377 H        1 ZINC000001539579    0.0600
38     H38     4.4215   -3.9967   -1.8251 H        1 ZINC000001539579    0.0600
39     H39     5.7556   -4.7061   -0.8842 H        1 ZINC000001539579    0.0600
40     H40     4.0921   -4.7654   -0.2538 H        1 ZINC000001539579    0.0600
41     H41     6.1727   -1.0325   -0.4342 H        1 ZINC000001539579    0.0600
42     H42     6.9728   -2.5223   -0.9898 H        1 ZINC000001539579    0.0600
43     H43     5.6292   -1.8300   -1.9298 H        1 ZINC000001539579    0.0600
44     H44     6.4530   -3.7459    1.2100 H        1 ZINC000001539579    0.0600
45     H45     5.8994   -2.1310    1.7229 H        1 ZINC000001539579    0.0700
46     H46     4.0673   -4.5699    1.6015 H        1 ZINC000001539579    0.0700
47     H47     4.9299   -4.0667    3.0781 H        1 ZINC000001539579    0.0700
48     H48     4.8449   -1.1299    2.8749 H        1 ZINC000001539579    0.0600
49     H49     3.2175   -0.8591    3.5432 H        1 ZINC000001539579    0.0600
50     H50     4.2936   -2.0686    4.2832 H        1 ZINC000001539579    0.0600
51     H51     2.5425   -3.8076    4.0205 H        1 ZINC000001539579    0.0600
52     H52     1.4524   -2.6121    3.2785 H        1 ZINC000001539579    0.0600
53     H53     1.8270   -4.1269    2.4223 H        1 ZINC000001539579    0.0600
@<TRIPOS>BOND
1     1     2     2
2     1     27    1
3     1     28    1
4     2     3     1
5     2     12    1
6     3     11    ar
7     3     4     ar
8     4     5     ar
9     4     29    1
10    5     6     ar
11    5     30    1
12    6     7     1
13    6     10    ar
14    7     8     ar
15    7     9     ar
16    10    11    ar
17    10    31    1
18    11    32    1
19    12    17    ar
20    12    13    ar
21    13    14    ar
22    13    33    1
23    14    24    1
24    14    15    ar
25    15    16    ar
26    15    19    1
27    16    17    ar
28    16    34    1
29    17    18    1
30    18    35    1
31    18    36    1
32    18    37    1
33    19    20    1
34    19    21    1
35    19    22    1
36    20    38    1
37    20    39    1
38    20    40    1
39    21    41    1
40    21    42    1
41    21    43    1
42    22    23    1
43    22    44    1
44    22    45    1
45    23    24    1
46    23    46    1
47    23    47    1
48    24    25    1
49    24    26    1
50    25    48    1
51    25    49    1
52    25    50    1
53    26    51    1
54    26    52    1
55    26    53    1
@<TRIPOS>SUBSTRUCTURE
1   ZINC000001539579 1     RESIDUE    1   A     ZIN   1
