@<TRIPOS>MOLECULE
ZINC000001542199
46    48    1     0     0
SMALL
USER_CHARGES
@<TRIPOS>ATOM
1      C1     -0.3585    1.2393    0.0969 C.3      1 ZINC000001542199   -0.1500
2      C2     -0.3360   -0.2902    0.1273 C.3      1 ZINC000001542199    0.0600
3      O3      0.4028   -0.7404    1.2934 O.3      1 ZINC000001542199   -0.3500
4      C4      0.5168   -2.0716    1.4691 C.2      1 ZINC000001542199    0.5200
5      O5      0.0125   -2.8354    0.6697 O.2      1 ZINC000001542199   -0.5000
6      C6      1.2532   -2.6014    2.6311 C.ar     1 ZINC000001542199   -0.1800
7      C7      1.3823   -3.9864    2.8196 C.ar     1 ZINC000001542199   -0.0100
8      C8      2.0739   -4.4358    3.9116 C.ar     1 ZINC000001542199   -0.1600
9      C9      2.6280   -3.5083    4.8016 C.ar     1 ZINC000001542199    0.2700
10     C10     3.3533   -3.9721    5.9459 C.1      1 ZINC000001542199   -0.1300
11     C11     3.9479   -4.3523    6.8841 C.1      1 ZINC000001542199   -0.0500
12     C12     4.6732   -4.8161    8.0284 C.ar     1 ZINC000001542199    0.0000
13     C13     4.8318   -6.1884    8.2520 C.ar     1 ZINC000001542199   -0.0700
14     C14     5.5244   -6.6143    9.3581 C.ar     1 ZINC000001542199   -0.1000
15     C15     6.0701   -5.6956   10.2612 C.ar     1 ZINC000001542199   -0.0600
16     S16     6.9101   -6.3387   11.6742 S.3      1 ZINC000001542199   -0.1100
17     C17     7.7643   -4.8760   12.3287 C.3      1 ZINC000001542199   -0.1100
18     C18     6.7484   -3.7253   12.3517 C.3      1 ZINC000001542199   -0.1100
19     C19     6.4941   -3.2633   10.9275 C.3      1 ZINC000001542199   -0.0300
20     C20     5.5132   -2.0896   10.9612 C.3      1 ZINC000001542199   -0.1400
21     C21     7.8152   -2.7789   10.3266 C.3      1 ZINC000001542199   -0.1500
22     C22     5.9305   -4.3349   10.0408 C.ar     1 ZINC000001542199   -0.0700
23     C23     5.2302   -3.9027    8.9227 C.ar     1 ZINC000001542199   -0.0700
24     N24     2.4892   -2.1993    4.5967 N.ar     1 ZINC000001542199   -0.4700
25     C25     1.8369   -1.7306    3.5564 C.ar     1 ZINC000001542199    0.1700
26     H26     0.6629    1.6168    0.0479 H        1 ZINC000001542199    0.0700
27     H27    -0.9131    1.5772   -0.7785 H        1 ZINC000001542199    0.0800
28     H28    -0.8412    1.6136    0.9996 H        1 ZINC000001542199    0.0700
29     H29    -1.3574   -0.6677    0.1763 H        1 ZINC000001542199    0.0700
30     H30     0.1467   -0.6645   -0.7755 H        1 ZINC000001542199    0.0700
31     H31     0.9452   -4.6820    2.1186 H        1 ZINC000001542199    0.1600
32     H32     2.1908   -5.4954    4.0852 H        1 ZINC000001542199    0.1500
33     H33     4.4131   -6.9054    7.5613 H        1 ZINC000001542199    0.1400
34     H34     5.6494   -7.6726    9.5337 H        1 ZINC000001542199    0.1400
35     H35     8.1208   -5.0761   13.3392 H        1 ZINC000001542199    0.1100
36     H36     8.6035   -4.6169   11.6831 H        1 ZINC000001542199    0.1000
37     H37     5.8148   -4.0716   12.7951 H        1 ZINC000001542199    0.0800
38     H38     7.1477   -2.8977   12.9380 H        1 ZINC000001542199    0.0900
39     H39     5.8820   -1.3275   11.6478 H        1 ZINC000001542199    0.0600
40     H40     5.4211   -1.6643    9.9618 H        1 ZINC000001542199    0.0600
41     H41     4.5379   -2.4407   11.2980 H        1 ZINC000001542199    0.0600
42     H42     8.5362   -3.5963   10.3278 H        1 ZINC000001542199    0.0600
43     H43     7.6475   -2.4438    9.3030 H        1 ZINC000001542199    0.0600
44     H44     8.2029   -1.9515   10.9209 H        1 ZINC000001542199    0.0700
45     H45     5.1115   -2.8440    8.7454 H        1 ZINC000001542199    0.1300
46     H46     1.7428   -0.6634    3.4201 H        1 ZINC000001542199    0.1800
@<TRIPOS>BOND
1     1     2     1
2     1     26    1
3     1     27    1
4     1     28    1
5     2     3     1
6     2     29    1
7     2     30    1
8     3     4     1
9     4     5     2
10    4     6     1
11    6     25    ar
12    6     7     ar
13    7     8     ar
14    7     31    1
15    8     9     ar
16    8     32    1
17    9     10    1
18    9     24    ar
19    10    11    3
20    11    12    1
21    12    23    ar
22    12    13    ar
23    13    14    ar
24    13    33    1
25    14    15    ar
26    14    34    1
27    15    22    ar
28    15    16    1
29    16    17    1
30    17    18    1
31    17    35    1
32    17    36    1
33    18    19    1
34    18    37    1
35    18    38    1
36    19    20    1
37    19    21    1
38    19    22    1
39    20    39    1
40    20    40    1
41    20    41    1
42    21    42    1
43    21    43    1
44    21    44    1
45    22    23    ar
46    23    45    1
47    24    25    ar
48    25    46    1
@<TRIPOS>SUBSTRUCTURE
1   ZINC000001542199 1     RESIDUE    1   A     ZIN   1
