@<TRIPOS>MOLECULE
ZINC000043450324
79    83    1     0     0
SMALL
USER_CHARGES
@<TRIPOS>ATOM
1      C1      0.7463    1.4983   -0.1422 C.3      1 ZINC000043450324    0.0400
2      O2      0.2200    0.1451   -0.1540 O.3      1 ZINC000043450324   -0.3600
3      C3      0.6836   -0.6808   -1.1052 C.2      1 ZINC000043450324    0.4700
4      O4      1.5700   -0.3172   -1.8413 O.2      1 ZINC000043450324   -0.4800
5      C5      0.0984   -2.0615   -1.2548 C.3      1 ZINC000043450324   -0.1100
6      C6      0.6824   -2.7305   -2.5007 C.3      1 ZINC000043450324    0.1700
7      O7      2.1069   -2.7724   -2.3955 O.3      1 ZINC000043450324   -0.5200
8      C8      0.2861   -1.9299   -3.7428 C.3      1 ZINC000043450324   -0.1500
9      C9      0.8761   -2.5949   -4.9879 C.3      1 ZINC000043450324   -0.1200
10     C10     0.5517   -1.7484   -6.2204 C.3      1 ZINC000043450324   -0.1400
11     C11     1.0273   -2.4769   -7.4790 C.3      1 ZINC000043450324    0.1300
12     C12     0.6665   -1.6493   -8.7143 C.3      1 ZINC000043450324   -0.1800
13     C13     2.5443   -2.6653   -7.4167 C.3      1 ZINC000043450324   -0.1400
14     O14     0.3915   -3.7541   -7.5591 O.3      1 ZINC000043450324   -0.5600
15     C15     0.1458   -4.1341   -2.6153 C.2      1 ZINC000043450324    0.4400
16     O16    -0.8227   -4.3563   -3.3028 O.2      1 ZINC000043450324   -0.4700
17     O17     0.7436   -5.1374   -1.9537 O.3      1 ZINC000043450324   -0.3200
18     C18     0.1726   -6.4631   -2.1107 C.3      1 ZINC000043450324    0.1500
19     H19    -0.3071   -6.5744   -3.0831 H        1 ZINC000043450324    0.1300
20     C20    -0.7952   -6.7981   -0.9643 C.2      1 ZINC000043450324    0.1200
21     O21    -1.6414   -5.9143   -0.3782 O.3      1 ZINC000043450324   -0.2800
22     C22    -2.4690   -6.4100    0.6761 C.3      1 ZINC000043450324    0.0200
23     C23    -0.6810   -8.0923   -0.6277 C.2      1 ZINC000043450324   -0.3200
24     C24     0.3050   -8.7115   -1.5801 C.3      1 ZINC000043450324    0.1100
25     C25    -0.5334   -9.3376   -2.7065 C.3      1 ZINC000043450324   -0.1400
26     C26    -0.8437  -10.7448   -2.1037 C.3      1 ZINC000043450324   -0.1500
27     C27     0.0269  -10.8126   -0.8054 C.3      1 ZINC000043450324    0.0000
28     N28     1.1185   -9.8742   -1.1788 N.4      1 ZINC000043450324   -0.3900
29     H29     1.6311  -10.2327   -1.9705 H        1 ZINC000043450324    0.4300
30     C30     2.0412   -9.4594   -0.1258 C.3      1 ZINC000043450324    0.0100
31     C31     3.3772   -9.1392   -0.7673 C.3      1 ZINC000043450324   -0.1200
32     C32     3.4152   -8.5415   -2.1340 C.ar     1 ZINC000043450324   -0.0900
33     C33     4.5888   -8.7562   -2.8689 C.ar     1 ZINC000043450324   -0.0900
34     C34     4.6702   -8.2484   -4.1522 C.ar     1 ZINC000043450324    0.0600
35     C35     3.6021   -7.5340   -4.7157 C.ar     1 ZINC000043450324    0.0600
36     C36     2.4438   -7.3129   -3.9905 C.ar     1 ZINC000043450324   -0.0800
37     C37     2.3770   -7.8134   -2.6929 C.ar     1 ZINC000043450324   -0.0800
38     C38     1.2131   -7.5495   -1.8749 C.3      1 ZINC000043450324   -0.0600
39     H39     1.6135   -7.3059   -0.8908 H        1 ZINC000043450324    0.1100
40     O40     3.9384   -7.1615   -5.9708 O.3      1 ZINC000043450324   -0.2900
41     C41     5.3724   -7.3046   -6.0434 C.3      1 ZINC000043450324    0.2100
42     O42     5.6737   -8.3141   -5.0577 O.3      1 ZINC000043450324   -0.3000
43     H43     1.8127    1.4714    0.0817 H        1 ZINC000043450324    0.0700
44     H44     0.5916    1.9569   -1.1188 H        1 ZINC000043450324    0.0700
45     H45     0.2298    2.0825    0.6194 H        1 ZINC000043450324    0.1100
46     H46     0.3421   -2.6567   -0.3748 H        1 ZINC000043450324    0.1200
47     H47    -0.9844   -1.9882   -1.3555 H        1 ZINC000043450324    0.1300
48     H48     2.5453   -3.1845   -3.1525 H        1 ZINC000043450324    0.3800
49     H49    -0.8004   -1.9024   -3.8259 H        1 ZINC000043450324    0.0900
50     H50     0.6698   -0.9133   -3.6574 H        1 ZINC000043450324    0.1100
51     H51     1.9575   -2.6771   -4.8780 H        1 ZINC000043450324    0.0600
52     H52     0.4464   -3.5895   -5.1069 H        1 ZINC000043450324    0.0700
53     H53    -0.5250   -1.5885   -6.2782 H        1 ZINC000043450324    0.0700
54     H54     1.0583   -0.7864   -6.1441 H        1 ZINC000043450324    0.0800
55     H55     1.1514   -0.6750   -8.6533 H        1 ZINC000043450324    0.0700
56     H56     1.0053   -2.1683   -9.6110 H        1 ZINC000043450324    0.0700
57     H57    -0.4143   -1.5150   -8.7587 H        1 ZINC000043450324    0.0600
58     H58     2.7925   -3.3490   -6.6049 H        1 ZINC000043450324    0.0600
59     H59     2.8982   -3.0790   -8.3610 H        1 ZINC000043450324    0.0600
60     H60     3.0231   -1.7022   -7.2397 H        1 ZINC000043450324    0.0700
61     H61    -0.5736   -3.7111   -7.6018 H        1 ZINC000043450324    0.3800
62     H62    -3.0955   -5.6030    1.0561 H        1 ZINC000043450324    0.1100
63     H63    -3.1010   -7.2122    0.2953 H        1 ZINC000043450324    0.0700
64     H64    -1.8416   -6.7927    1.4811 H        1 ZINC000043450324    0.0600
65     H65    -1.1992   -8.5946    0.1759 H        1 ZINC000043450324    0.1700
66     H66    -1.4499   -8.7719   -2.8743 H        1 ZINC000043450324    0.1200
67     H67     0.0462   -9.4237   -3.6255 H        1 ZINC000043450324    0.1000
68     H68    -1.9022  -10.8285   -1.8572 H        1 ZINC000043450324    0.1100
69     H69    -0.5507  -11.5304   -2.8001 H        1 ZINC000043450324    0.1000
70     H70    -0.5263  -10.4519    0.0618 H        1 ZINC000043450324    0.1400
71     H71     0.4099  -11.8192   -0.6374 H        1 ZINC000043450324    0.1400
72     H72     1.6523   -8.5735    0.3762 H        1 ZINC000043450324    0.1300
73     H73     2.1636  -10.2676    0.5954 H        1 ZINC000043450324    0.1400
74     H74     3.9047   -8.4585   -0.0992 H        1 ZINC000043450324    0.1200
75     H75     3.9530  -10.0642   -0.8001 H        1 ZINC000043450324    0.1100
76     H76     5.4134   -9.3072   -2.4412 H        1 ZINC000043450324    0.1500
77     H77     1.6159   -6.7675   -4.4188 H        1 ZINC000043450324    0.1500
78     H78     5.6732   -7.6386   -7.0365 H        1 ZINC000043450324    0.1400
79     H79     5.8635   -6.3650   -5.7904 H        1 ZINC000043450324    0.1000
@<TRIPOS>BOND
1     1     2     1
2     1     43    1
3     1     44    1
4     1     45    1
5     2     3     1
6     3     4     2
7     3     5     1
8     5     6     1
9     5     46    1
10    5     47    1
11    6     7     1
12    6     8     1
13    6     15    1
14    7     48    1
15    8     9     1
16    8     49    1
17    8     50    1
18    9     10    1
19    9     51    1
20    9     52    1
21    10    11    1
22    10    53    1
23    10    54    1
24    11    12    1
25    11    13    1
26    11    14    1
27    12    55    1
28    12    56    1
29    12    57    1
30    13    58    1
31    13    59    1
32    13    60    1
33    14    61    1
34    15    16    2
35    15    17    1
36    17    18    1
37    18    19    1
38    18    38    1
39    18    20    1
40    20    21    1
41    20    23    2
42    21    22    1
43    22    62    1
44    22    63    1
45    22    64    1
46    23    24    1
47    23    65    1
48    24    28    1
49    24    38    1
50    24    25    1
51    25    26    1
52    25    66    1
53    25    67    1
54    26    27    1
55    26    68    1
56    26    69    1
57    27    28    1
58    27    70    1
59    27    71    1
60    28    29    1
61    28    30    1
62    30    31    1
63    30    72    1
64    30    73    1
65    31    32    1
66    31    74    1
67    31    75    1
68    32    37    ar
69    32    33    ar
70    33    34    ar
71    33    76    1
72    34    42    1
73    34    35    ar
74    35    36    ar
75    35    40    1
76    36    37    ar
77    36    77    1
78    37    38    1
79    38    39    1
80    40    41    1
81    41    42    1
82    41    78    1
83    41    79    1
@<TRIPOS>SUBSTRUCTURE
1   ZINC000043450324 1     RESIDUE    1   A     ZIN   1
