@<TRIPOS>MOLECULE
ZINC000000057062
31    31    1     0     0
SMALL
USER_CHARGES
@<TRIPOS>ATOM
1      C1     -0.0184    1.5028    0.0103 C.3      1 ZINC000000057062   -0.1200
2      C2      0.0021   -0.0041    0.0020 C.ar     1 ZINC000000057062   -0.0900
3      C3      0.0058   -0.6888   -1.1978 C.ar     1 ZINC000000057062   -0.1100
4      C4      0.0250   -2.0713   -1.2061 C.ar     1 ZINC000000057062   -0.1000
5      C5      0.0406   -2.7720   -0.0142 C.ar     1 ZINC000000057062   -0.1100
6      C6      0.0369   -2.0919    1.1883 C.ar     1 ZINC000000057062   -0.1000
7      C7      0.0538   -2.8562    2.4870 C.3      1 ZINC000000057062   -0.1100
8      C8      0.0230   -0.7047    1.1992 C.ar     1 ZINC000000057062    0.0700
9      O9      0.0194   -0.0334    2.3809 O.3      1 ZINC000000057062   -0.3400
10     C10     1.2908    0.2999    2.9415 C.3      1 ZINC000000057062    0.0300
11     C11     1.0863    1.0472    4.2609 C.3      1 ZINC000000057062    0.0400
12     H12     0.4452    1.9125    4.0928 H        1 ZINC000000057062    0.1500
13     C13     2.4410    1.5129    4.7984 C.3      1 ZINC000000057062   -0.1800
14     N14     0.4535    0.1513    5.2381 N.4      1 ZINC000000057062   -0.6400
15     H15    -0.4398   -0.1559    4.8835 H        1 ZINC000000057062    0.4400
16     H16     1.0471   -0.6497    5.3937 H        1 ZINC000000057062    0.4300
17     H17     0.3187    0.6441    6.1081 H        1 ZINC000000057062    0.4400
18     H18     1.0042    1.8801    0.0026 H        1 ZINC000000057062    0.0700
19     H19    -0.5455    1.8639   -0.8728 H        1 ZINC000000057062    0.0800
20     H20    -0.5286    1.8543    0.9071 H        1 ZINC000000057062    0.0700
21     H21    -0.0067   -0.1438   -2.1301 H        1 ZINC000000057062    0.1300
22     H22     0.0276   -2.6048   -2.1451 H        1 ZINC000000057062    0.1300
23     H23     0.0552   -3.8518   -0.0233 H        1 ZINC000000057062    0.1300
24     H24     1.0855   -3.0262    2.7951 H        1 ZINC000000057062    0.0700
25     H25    -0.4643   -2.2807    3.2540 H        1 ZINC000000057062    0.0600
26     H26    -0.4474   -3.8146    2.3511 H        1 ZINC000000057062    0.0800
27     H27     1.8576   -0.6129    3.1250 H        1 ZINC000000057062    0.0800
28     H28     1.8396    0.9346    2.2457 H        1 ZINC000000057062    0.1000
29     H29     2.9105    2.1777    4.0734 H        1 ZINC000000057062    0.1100
30     H30     2.2953    2.0453    5.7384 H        1 ZINC000000057062    0.0900
31     H31     3.0821    0.6477    4.9665 H        1 ZINC000000057062    0.0900
@<TRIPOS>BOND
1     1     2     1
2     1     18    1
3     1     19    1
4     1     20    1
5     2     8     ar
6     2     3     ar
7     3     4     ar
8     3     21    1
9     4     5     ar
10    4     22    1
11    5     6     ar
12    5     23    1
13    6     7     1
14    6     8     ar
15    7     24    1
16    7     25    1
17    7     26    1
18    8     9     1
19    9     10    1
20    10    11    1
21    10    27    1
22    10    28    1
23    11    12    1
24    11    13    1
25    11    14    1
26    13    29    1
27    13    30    1
28    13    31    1
29    14    15    1
30    14    16    1
31    14    17    1
@<TRIPOS>SUBSTRUCTURE
1   ZINC000000057062 1     RESIDUE    1   A     ZIN   1
