@<TRIPOS>MOLECULE
ZINC000003824921
76    79    1     0     0
SMALL
USER_CHARGES
@<TRIPOS>ATOM
1      C1     -0.0187    1.5258    0.0104 C.3      1 ZINC000003824921   -0.1200
2      C2      0.0021   -0.0041    0.0020 C.3      1 ZINC000003824921   -0.1100
3      C3      0.7421   -0.5109    1.2415 C.3      1 ZINC000003824921   -0.1200
4      C4     -1.4117   -0.5257    0.0127 C.2      1 ZINC000003824921    0.5100
5      O5     -2.3491    0.2539    0.0259 O.co2    1 ZINC000003824921   -0.6900
6      O6     -1.6182   -1.7273    0.0082 O.co2    1 ZINC000003824921   -0.6900
7      C7      0.7074   -0.4901   -1.2379 C.ar     1 ZINC000003824921   -0.0200
8      C8      1.2168    0.4202   -2.1450 C.ar     1 ZINC000003824921   -0.1300
9      C9      1.8638   -0.0256   -3.2823 C.ar     1 ZINC000003824921   -0.1200
10     C10     2.0019   -1.3817   -3.5123 C.ar     1 ZINC000003824921   -0.1600
11     C11     2.7068   -1.8677   -4.7524 C.3      1 ZINC000003824921    0.1600
12     H12     3.3989   -1.1010   -5.1010 H        1 ZINC000003824921    0.1000
13     O13     3.4313   -3.0620   -4.4514 O.3      1 ZINC000003824921   -0.5600
14     C14     1.6755   -2.1584   -5.8445 C.3      1 ZINC000003824921   -0.1500
15     C15     2.3970   -2.5318   -7.1410 C.3      1 ZINC000003824921   -0.1400
16     C16     1.3656   -2.8225   -8.2331 C.3      1 ZINC000003824921   -0.0100
17     N17     2.0584   -3.1810   -9.4779 N.4      1 ZINC000003824921   -0.3800
18     H18     2.7087   -2.4493   -9.7224 H        1 ZINC000003824921    0.4200
19     C19     1.0744   -3.3393  -10.5555 C.3      1 ZINC000003824921    0.0000
20     C20     1.7970   -3.6331  -11.8720 C.3      1 ZINC000003824921   -0.1500
21     C21     2.6082   -4.9237  -11.7257 C.3      1 ZINC000003824921   -0.1300
22     C22     3.3961   -5.1814  -13.0117 C.3      1 ZINC000003824921    0.2400
23     O23     4.2827   -4.0873  -13.2544 O.3      1 ZINC000003824921   -0.5400
24     C24     4.1938   -6.4516  -12.8661 C.ar     1 ZINC000003824921   -0.0800
25     C25     3.7245   -7.4743  -12.0631 C.ar     1 ZINC000003824921   -0.1200
26     C26     4.4563   -8.6395  -11.9296 C.ar     1 ZINC000003824921   -0.1200
27     C27     5.6570   -8.7822  -12.5995 C.ar     1 ZINC000003824921   -0.1100
28     C28     6.1258   -7.7599  -13.4032 C.ar     1 ZINC000003824921   -0.1200
29     C29     5.3920   -6.5964  -13.5401 C.ar     1 ZINC000003824921   -0.0900
30     C30     2.4394   -5.3187  -14.1679 C.ar     1 ZINC000003824921   -0.1200
31     C31     1.1663   -5.8143  -13.9565 C.ar     1 ZINC000003824921   -0.1200
32     C32     0.2887   -5.9402  -15.0171 C.ar     1 ZINC000003824921   -0.1200
33     C33     0.6840   -5.5703  -16.2890 C.ar     1 ZINC000003824921   -0.1100
34     C34     1.9568   -5.0739  -16.5003 C.ar     1 ZINC000003824921   -0.1100
35     C35     2.8329   -4.9439  -15.4389 C.ar     1 ZINC000003824921   -0.1000
36     C36     3.5797   -4.7741  -10.5513 C.3      1 ZINC000003824921   -0.1400
37     C37     2.7896   -4.4389   -9.2843 C.3      1 ZINC000003824921   -0.0100
38     C38     1.4937   -2.2919   -2.6045 C.ar     1 ZINC000003824921   -0.1200
39     C39     0.8501   -1.8461   -1.4653 C.ar     1 ZINC000003824921   -0.0900
40     H40     1.0039    1.9031    0.0027 H        1 ZINC000003824921    0.0400
41     H41    -0.5459    1.8868   -0.8726 H        1 ZINC000003824921    0.0500
42     H42    -0.5289    1.8773    0.9072 H        1 ZINC000003824921    0.0600
43     H43     0.2319   -0.1594    2.1383 H        1 ZINC000003824921    0.0500
44     H44     0.7568   -1.6008    1.2356 H        1 ZINC000003824921    0.0600
45     H45     1.7647   -0.1336    1.2338 H        1 ZINC000003824921    0.0400
46     H46     1.1090    1.4797   -1.9653 H        1 ZINC000003824921    0.1300
47     H47     2.2612    0.6856   -3.9913 H        1 ZINC000003824921    0.1100
48     H48     2.8775   -3.7887   -4.1346 H        1 ZINC000003824921    0.3800
49     H49     1.0386   -2.9858   -5.5318 H        1 ZINC000003824921    0.0800
50     H50     1.0636   -1.2719   -6.0116 H        1 ZINC000003824921    0.0900
51     H51     3.0338   -1.7043   -7.4537 H        1 ZINC000003824921    0.0900
52     H52     3.0089   -3.4182   -6.9739 H        1 ZINC000003824921    0.0900
53     H53     0.7288   -3.6500   -7.9204 H        1 ZINC000003824921    0.1300
54     H54     0.7537   -1.9361   -8.4002 H        1 ZINC000003824921    0.1300
55     H55     0.4047   -4.1655  -10.3169 H        1 ZINC000003824921    0.1300
56     H56     0.4957   -2.4211  -10.6563 H        1 ZINC000003824921    0.1300
57     H57     1.0646   -3.7521  -12.6705 H        1 ZINC000003824921    0.1200
58     H58     2.4669   -2.8073  -12.1117 H        1 ZINC000003824921    0.0900
59     H59     1.9336   -5.7590  -11.5380 H        1 ZINC000003824921    0.1000
60     H60     3.8370   -3.2355  -13.3587 H        1 ZINC000003824921    0.3800
61     H61     2.7864   -7.3628  -11.5398 H        1 ZINC000003824921    0.1200
62     H62     4.0900   -9.4382  -11.3016 H        1 ZINC000003824921    0.1300
63     H63     6.2290   -9.6922  -12.4946 H        1 ZINC000003824921    0.1300
64     H64     7.0641   -7.8712  -13.9263 H        1 ZINC000003824921    0.1300
65     H65     5.7583   -5.7977  -14.1681 H        1 ZINC000003824921    0.1300
66     H66     0.8575   -6.1033  -12.9628 H        1 ZINC000003824921    0.1200
67     H67    -0.7056   -6.3280  -14.8521 H        1 ZINC000003824921    0.1300
68     H68    -0.0014   -5.6694  -17.1178 H        1 ZINC000003824921    0.1300
69     H69     2.2657   -4.7851  -17.4940 H        1 ZINC000003824921    0.1300
70     H70     3.8273   -4.5561  -15.6040 H        1 ZINC000003824921    0.1300
71     H71     4.1215   -5.7086  -10.4058 H        1 ZINC000003824921    0.1200
72     H72     4.2865   -3.9720  -10.7636 H        1 ZINC000003824921    0.1000
73     H73     3.4774   -4.3316   -8.4455 H        1 ZINC000003824921    0.1400
74     H74     2.0836   -5.2422   -9.0737 H        1 ZINC000003824921    0.1300
75     H75     1.6019   -3.3514   -2.7840 H        1 ZINC000003824921    0.1100
76     H76     0.4531   -2.5573   -0.7560 H        1 ZINC000003824921    0.1400
@<TRIPOS>BOND
1     1     2     1
2     1     40    1
3     1     41    1
4     1     42    1
5     2     3     1
6     2     4     1
7     2     7     1
8     3     43    1
9     3     44    1
10    3     45    1
11    4     5     ar
12    4     6     ar
13    7     39    ar
14    7     8     ar
15    8     9     ar
16    8     46    1
17    9     10    ar
18    9     47    1
19    10    11    1
20    10    38    ar
21    11    12    1
22    11    13    1
23    11    14    1
24    13    48    1
25    14    15    1
26    14    49    1
27    14    50    1
28    15    16    1
29    15    51    1
30    15    52    1
31    16    17    1
32    16    53    1
33    16    54    1
34    17    18    1
35    17    37    1
36    17    19    1
37    19    20    1
38    19    55    1
39    19    56    1
40    20    21    1
41    20    57    1
42    20    58    1
43    21    22    1
44    21    36    1
45    21    59    1
46    22    23    1
47    22    24    1
48    22    30    1
49    23    60    1
50    24    29    ar
51    24    25    ar
52    25    26    ar
53    25    61    1
54    26    27    ar
55    26    62    1
56    27    28    ar
57    27    63    1
58    28    29    ar
59    28    64    1
60    29    65    1
61    30    35    ar
62    30    31    ar
63    31    32    ar
64    31    66    1
65    32    33    ar
66    32    67    1
67    33    34    ar
68    33    68    1
69    34    35    ar
70    34    69    1
71    35    70    1
72    36    37    1
73    36    71    1
74    36    72    1
75    37    73    1
76    37    74    1
77    38    39    ar
78    38    75    1
79    39    76    1
@<TRIPOS>SUBSTRUCTURE
1   ZINC000003824921 1     RESIDUE    1   A     ZIN   1
