@<TRIPOS>MOLECULE
ZINC000001530697
51   54    0    0    0
SMALL
USER_CHARGES
NO_NAME
@<TRIPOS>ATOM
1 C1        0.2223     2.0441    -1.3011 C.3    1 <0>      -0.1500
2 S2        0.1678     0.2650    -0.9511 S.3    1 <0>      -0.1000
3 C3        1.1507    -0.4231    -2.2415 C.ar   1 <0>      -0.0500
4 C4        1.7345     0.4081    -3.1880 C.ar   1 <0>      -0.1500
5 C5        2.5027    -0.1348    -4.2009 C.ar   1 <0>      -0.0400
6 C6        2.6938    -1.5077    -4.2768 C.ar   1 <0>      -0.1600
7 S7        3.6694    -2.1696    -5.5844 S.3    1 <0>       0.0200
8 C8        3.2240    -3.8725    -5.6059 C.ar   1 <0>      -0.1500
9 C9        3.5122    -4.6369    -6.7286 C.ar   1 <0>      -0.0600
10 C10       3.1690    -5.9760    -6.7651 C.ar   1 <0>      -0.1400
11 C11       2.5371    -6.5564    -5.6822 C.ar   1 <0>      -0.0800
12 C12       2.2469    -5.8020    -4.5607 C.ar   1 <0>      -0.1600
13 C13       2.5895    -4.4550    -4.5126 C.ar   1 <0>       0.2000
14 N14       2.2892    -3.7274    -3.3636 N.pl3  1 <0>      -0.5600
15 C15       2.1456    -4.4659    -2.1065 C.3    1 <0>       0.1100
16 C16       0.6891    -4.9016    -1.9345 C.3    1 <0>      -0.1400
17 C17       0.5644    -5.7852    -0.6917 C.3    1 <0>       0.0900
18 H18       1.2392    -6.6364    -0.7821 H      1 <0>       0.0400
19 C19       0.9332    -4.9720     0.5512 C.3    1 <0>      -0.1200
20 C20       0.7877    -5.8542     1.7941 C.3    1 <0>      -0.1200
21 C21      -0.6475    -6.3823     1.8704 C.3    1 <0>      -0.1200
22 C22      -0.9705    -7.1546     0.5893 C.3    1 <0>       0.0600
23 N23      -0.8175    -6.2670    -0.5704 N.3    1 <0>      -0.5400
24 C24      -1.2524    -6.9339    -1.8049 C.3    1 <0>       0.0200
25 C25       2.1152    -2.3457    -3.3279 C.ar   1 <0>       0.2200
26 C26       1.3460    -1.7960    -2.3085 C.ar   1 <0>      -0.1400
27 H27       1.2558     2.3891    -1.2700 H      1 <0>       0.0900
28 H28      -0.1939     2.2326    -2.2907 H      1 <0>       0.0900
29 H29      -0.3622     2.5797    -0.5530 H      1 <0>       0.1100
30 H30       1.5884     1.4767    -3.1331 H      1 <0>       0.1300
31 H31       2.9561     0.5124    -4.9371 H      1 <0>       0.1400
32 H32       4.0055    -4.1842    -7.5760 H      1 <0>       0.1300
33 H33       3.3951    -6.5680    -7.6397 H      1 <0>       0.1300
34 H34       2.2688    -7.6021    -5.7121 H      1 <0>       0.1300
35 H35       1.7520    -6.2611    -3.7177 H      1 <0>       0.1300
36 H36       2.7882    -5.3461    -2.1268 H      1 <0>       0.0800
37 H37       2.4338    -3.8247    -1.2735 H      1 <0>       0.0900
38 H38       0.0575    -4.0208    -1.8189 H      1 <0>       0.0800
39 H39       0.3718    -5.4635    -2.8130 H      1 <0>       0.0800
40 H40       1.9640    -4.6275     0.4680 H      1 <0>       0.0700
41 H41       0.2675    -4.1129     0.6347 H      1 <0>       0.0700
42 H42       1.4813    -6.6925     1.7290 H      1 <0>       0.0600
43 H43       1.0076    -5.2668     2.6856 H      1 <0>       0.0700
44 H44      -0.7461    -7.0455     2.7298 H      1 <0>       0.0700
45 H45      -1.3381    -5.5454     1.9747 H      1 <0>       0.0700
46 H46      -0.2884    -7.9994     0.4928 H      1 <0>       0.0300
47 H47      -1.9965    -7.5198     0.6343 H      1 <0>       0.0800
48 H48      -2.2639    -7.3180    -1.6733 H      1 <0>       0.0700
49 H49      -1.2392    -6.2194    -2.6279 H      1 <0>       0.0700
50 H50      -0.5767    -7.7593    -2.0294 H      1 <0>       0.0200
51 H51       0.8953    -2.4400    -1.5679 H      1 <0>       0.1400
@<TRIPOS>BOND
1    1    2 1
2    1   27 1
3    1   28 1
4    1   29 1
5    2    3 1
6    3   26 ar
7    3    4 ar
8    4    5 ar
9    4   30 1
10    5    6 ar
11    5   31 1
12    6   25 ar
13    6    7 1
14    7    8 1
15    8   13 ar
16    8    9 ar
17    9   10 ar
18    9   32 1
19   10   11 ar
20   10   33 1
21   11   12 ar
22   11   34 1
23   12   13 ar
24   12   35 1
25   13   14 1
26   14   15 1
27   14   25 1
28   15   16 1
29   15   36 1
30   15   37 1
31   16   17 1
32   16   38 1
33   16   39 1
34   17   18 1
35   17   23 1
36   17   19 1
37   19   20 1
38   19   40 1
39   19   41 1
40   20   21 1
41   20   42 1
42   20   43 1
43   21   22 1
44   21   44 1
45   21   45 1
46   22   23 1
47   22   46 1
48   22   47 1
49   23   24 1
50   24   48 1
51   24   49 1
52   24   50 1
53   25   26 ar
54   26   51 1
