@<TRIPOS>MOLECULE
ZINC000000105216
30   31    0    0    0
SMALL
USER_CHARGES
NO_NAME
@<TRIPOS>ATOM
1 C1       -0.0173     1.4248     0.0099 C.3    1 <0>       0.0300
2 O2        0.0021    -0.0041     0.0020 O.3    1 <0>      -0.3200
3 C3        0.6257    -0.6183     1.0414 C.ar   1 <0>       0.1100
4 C4        1.2032     0.1543     2.0534 C.ar   1 <0>      -0.2000
5 C5        1.8343    -0.4314     3.1064 C.ar   1 <0>      -0.0700
6 C6        1.9088    -1.8329     3.1825 C.ar   1 <0>      -0.0700
7 C7        2.5526    -2.4710     4.2564 C.ar   1 <0>      -0.1200
8 C8        2.6059    -3.8303     4.2985 C.ar   1 <0>      -0.0200
9 C9        3.2968    -4.5105     5.4522 C.3    1 <0>      -0.1400
10 H10       3.6837    -3.7577     6.1389 H      1 <0>       0.0700
11 C11       4.4533    -5.3615     4.9240 C.3    1 <0>      -0.1200
12 C12       2.3135    -5.3933     6.1767 C.2    1 <0>       0.5000
13 O13       1.1588    -5.4636     5.7919 O.co2  1 <0>      -0.6900
14 O14       2.6728    -6.0373     7.1476 O.co2  1 <0>      -0.7000
15 C15       2.0307    -4.6027     3.2910 C.ar   1 <0>      -0.0500
16 C16       1.3990    -4.0202     2.2358 C.ar   1 <0>      -0.1300
17 C17       1.3236    -2.6185     2.1577 C.ar   1 <0>      -0.0200
18 C18       0.6754    -1.9827     1.0866 C.ar   1 <0>      -0.1500
19 H19       1.0053     1.8021     0.0021 H      1 <0>       0.0500
20 H20      -0.5445     1.7859    -0.8732 H      1 <0>       0.0900
21 H21      -0.5275     1.7763     0.9067 H      1 <0>       0.0500
22 H22       1.1478     1.2315     1.9981 H      1 <0>       0.1200
23 H23       2.2765     0.1779     3.8807 H      1 <0>       0.1300
24 H24       3.0032    -1.8856     5.0443 H      1 <0>       0.1200
25 H25       4.9531    -5.8535     5.7584 H      1 <0>       0.0600
26 H26       4.0664    -6.1143     4.2372 H      1 <0>       0.0500
27 H27       5.1645    -4.7230     4.3999 H      1 <0>       0.0400
28 H28       2.0874    -5.6797     3.3484 H      1 <0>       0.1200
29 H29       0.9578    -4.6314     1.4624 H      1 <0>       0.1200
30 H30       0.2217    -2.5690     0.3011 H      1 <0>       0.1300
@<TRIPOS>BOND
1    1    2 1
2    1   19 1
3    1   20 1
4    1   21 1
5    2    3 1
6    3   18 ar
7    3    4 ar
8    4    5 ar
9    4   22 1
10    5    6 ar
11    5   23 1
12    6   17 ar
13    6    7 ar
14    7    8 ar
15    7   24 1
16    8    9 1
17    8   15 ar
18    9   10 1
19    9   11 1
20    9   12 1
21   11   25 1
22   11   26 1
23   11   27 1
24   12   13 ar
25   12   14 ar
26   15   16 ar
27   15   28 1
28   16   17 ar
29   16   29 1
30   17   18 ar
31   18   30 1
