@<TRIPOS>MOLECULE
ZINC000003992105
66    70    1     0     0
SMALL
USER_CHARGES
@<TRIPOS>ATOM
1      C1      0.8188    1.9620    1.7542 C.3      1 ZINC000003992105   -0.1700
2      C2      0.7104    0.4959    1.3304 C.3      1 ZINC000003992105   -0.1000
3      H3      1.2361    0.3392    0.3885 H        1 ZINC000003992105    0.1100
4      C4     -0.7822    0.0931    1.1812 C.3      1 ZINC000003992105   -0.1100
5      C5     -1.1057   -0.5341    2.5417 C.3      1 ZINC000003992105   -0.0800
6      H6     -1.2217    0.2415    3.2988 H        1 ZINC000003992105    0.0900
7      C7     -2.2939   -1.4781    2.5679 C.3      1 ZINC000003992105   -0.1000
8      H8     -2.1368   -2.2872    1.8546 H        1 ZINC000003992105    0.1200
9      C9     -3.5712   -0.7154    2.2103 C.3      1 ZINC000003992105   -0.1400
10     C10    -4.7618   -1.6794    2.1991 C.3      1 ZINC000003992105    0.1300
11     H11    -4.6308   -2.4168    1.4071 H        1 ZINC000003992105    0.1100
12     F12    -5.9460   -0.9651    1.9881 F        1 ZINC000003992105   -0.2000
13     C13    -4.8165   -2.3776    3.5450 C.2      1 ZINC000003992105   -0.0800
14     C14    -5.9570   -2.3816    4.2209 C.2      1 ZINC000003992105   -0.1900
15     C15    -6.0433   -3.0303    5.5384 C.2      1 ZINC000003992105    0.4100
16     O16    -7.0976   -3.0699    6.1447 O.2      1 ZINC000003992105   -0.4500
17     C17    -4.8248   -3.6312    6.1068 C.2      1 ZINC000003992105   -0.2100
18     C18    -3.6986   -3.6216    5.4111 C.2      1 ZINC000003992105   -0.0700
19     C19    -3.5659   -3.0368    4.0470 C.3      1 ZINC000003992105   -0.0200
20     C20    -3.2167   -4.1722    3.0827 C.3      1 ZINC000003992105   -0.1400
21     C21    -2.3948   -2.0526    3.9900 C.3      1 ZINC000003992105    0.1600
22     F22    -2.6361   -0.9984    4.8774 F        1 ZINC000003992105   -0.1900
23     C23    -1.1159   -2.7636    4.4219 C.3      1 ZINC000003992105    0.0900
24     H24    -1.2082   -3.0575    5.4674 H        1 ZINC000003992105    0.0800
25     O25    -0.9411   -3.9350    3.6224 O.3      1 ZINC000003992105   -0.5400
26     C26     0.1175   -1.8607    4.2620 C.3      1 ZINC000003992105   -0.1300
27     C27     0.1729   -1.3709    2.8144 C.3      1 ZINC000003992105   -0.0400
28     C28     0.1400   -2.5669    1.8608 C.3      1 ZINC000003992105   -0.1700
29     C29     1.3037   -0.4205    2.4293 C.3      1 ZINC000003992105    0.1200
30     O30     1.7378    0.3404    3.5873 O.3      1 ZINC000003992105   -0.3100
31     C31     2.8041    1.1502    3.4235 C.2      1 ZINC000003992105    0.5600
32     O32     3.4171    1.1434    2.3731 O.2      1 ZINC000003992105   -0.4700
33     C33     3.2236    2.0377    4.5106 C.2      1 ZINC000003992105   -0.0700
34     C34     4.2765    2.9079    4.4759 C.2      1 ZINC000003992105   -0.1000
35     C35     4.3102    3.5501    5.7229 C.2      1 ZINC000003992105   -0.2300
36     C36     3.2898    3.0508    6.4554 C.2      1 ZINC000003992105    0.0100
37     O37     2.6345    2.1437    5.7199 O.3      1 ZINC000003992105   -0.1500
38     C38     2.4596   -1.1929    1.8476 C.2      1 ZINC000003992105    0.3400
39     O39     2.5722   -1.3020    0.6445 O.2      1 ZINC000003992105   -0.4200
40     S40     3.6140   -1.9164    2.8844 S.3      1 ZINC000003992105   -0.1500
41     C41     4.7107   -2.6692    1.6570 C.3      1 ZINC000003992105    0.0800
42     F42     5.4926   -1.6755    1.0585 F        1 ZINC000003992105   -0.1800
43     H43     1.8666    2.2623    1.7591 H        1 ZINC000003992105    0.0700
44     H44     0.2656    2.5852    1.0515 H        1 ZINC000003992105    0.0700
45     H45     0.4015    2.0831    2.7538 H        1 ZINC000003992105    0.0600
46     H46    -1.4028    0.9714    1.0039 H        1 ZINC000003992105    0.0800
47     H47    -0.9067   -0.6364    0.3808 H        1 ZINC000003992105    0.0800
48     H48    -3.7451    0.0672    2.9488 H        1 ZINC000003992105    0.0900
49     H49    -3.4603   -0.2645    1.2242 H        1 ZINC000003992105    0.0900
50     H50    -6.8301   -1.9044    3.8008 H        1 ZINC000003992105    0.1500
51     H51    -4.8498   -4.0786    7.0895 H        1 ZINC000003992105    0.1400
52     H52    -2.8219   -4.0647    5.8600 H        1 ZINC000003992105    0.1300
53     H53    -4.1271   -4.6989    2.7966 H        1 ZINC000003992105    0.0600
54     H54    -2.7407   -3.7599    2.1931 H        1 ZINC000003992105    0.0800
55     H55    -2.5335   -4.8668    3.5715 H        1 ZINC000003992105    0.1100
56     H56    -0.1469   -4.4430    3.8374 H        1 ZINC000003992105    0.3800
57     H57     0.0198   -0.9822    4.8998 H        1 ZINC000003992105    0.0900
58     H58     1.0191   -2.4136    4.5257 H        1 ZINC000003992105    0.0900
59     H59    -0.8215   -3.0732    1.9462 H        1 ZINC000003992105    0.1200
60     H60     0.2778   -2.2192    0.8370 H        1 ZINC000003992105    0.0600
61     H61     0.9400   -3.2603    2.1199 H        1 ZINC000003992105    0.0600
62     H62     4.9519    3.0699    3.6488 H        1 ZINC000003992105    0.1700
63     H63     5.0186    4.3018    6.0384 H        1 ZINC000003992105    0.1600
64     H64     3.0417    3.3386    7.4664 H        1 ZINC000003992105    0.2200
65     H65     5.3590   -3.3961    2.1464 H        1 ZINC000003992105    0.1300
66     H66     4.1136   -3.1700    0.8949 H        1 ZINC000003992105    0.1100
@<TRIPOS>BOND
1     1     2     1
2     1     43    1
3     1     44    1
4     1     45    1
5     2     3     1
6     2     29    1
7     2     4     1
8     4     5     1
9     4     46    1
10    4     47    1
11    5     6     1
12    5     27    1
13    5     7     1
14    7     8     1
15    7     21    1
16    7     9     1
17    9     10    1
18    9     48    1
19    9     49    1
20    10    11    1
21    10    12    1
22    10    13    1
23    13    19    1
24    13    14    2
25    14    15    1
26    14    50    1
27    15    16    2
28    15    17    1
29    17    18    2
30    17    51    1
31    18    19    1
32    18    52    1
33    19    20    1
34    19    21    1
35    20    53    1
36    20    54    1
37    20    55    1
38    21    22    1
39    21    23    1
40    23    24    1
41    23    25    1
42    23    26    1
43    25    56    1
44    26    27    1
45    26    57    1
46    26    58    1
47    27    28    1
48    27    29    1
49    28    59    1
50    28    60    1
51    28    61    1
52    29    30    1
53    29    38    1
54    30    31    1
55    31    32    2
56    31    33    1
57    33    37    1
58    33    34    2
59    34    35    1
60    34    62    1
61    35    36    2
62    35    63    1
63    36    37    1
64    36    64    1
65    38    39    2
66    38    40    1
67    40    41    1
68    41    42    1
69    41    65    1
70    41    66    1
@<TRIPOS>SUBSTRUCTURE
1   ZINC000003992105 1     RESIDUE    1   A     ZIN   1
