@<TRIPOS>MOLECULE
ZINC000001532522
25   24    0    0    0
SMALL
USER_CHARGES
NO_NAME
@<TRIPOS>ATOM
1 N1       -0.0116     1.0048     0.0076 N.4    1 <0>      -0.6400
2 H2        0.0021    -0.0041     0.0020 H      1 <0>       0.4400
3 H3        0.9350     1.3541     0.0004 H      1 <0>       0.4400
4 H4       -0.4996     1.3391    -0.8099 H      1 <0>       0.4400
5 C5       -0.6992     1.4786     1.2162 C.3    1 <0>      -0.0100
6 C6        0.0408     0.9717     2.4557 C.3    1 <0>      -0.1500
7 C7       -0.6753     1.4652     3.7145 C.3    1 <0>      -0.1300
8 C8        0.0647     0.9583     4.9540 C.3    1 <0>      -0.1300
9 C9       -0.6515     1.4517     6.2128 C.3    1 <0>      -0.0500
10 H10      -1.6981     1.1493     6.1776 H      1 <0>       0.1300
11 N11      -0.5671     2.9167     6.2818 N.4    1 <0>      -0.6200
12 H12      -1.0394     3.2421     7.1119 H      1 <0>       0.4400
13 H13       0.4017     3.1966     6.3144 H      1 <0>       0.4300
14 H14      -1.0057     3.3176     5.4663 H      1 <0>       0.4100
15 C15       0.0036     0.8530     7.4308 C.2    1 <0>       0.4800
16 O16       0.9266     1.4349     7.9747 O.co2  1 <0>      -0.6600
17 O17      -0.3894    -0.2134     7.8722 O.co2  1 <0>      -0.6300
18 H18      -0.7140     2.5685     1.2222 H      1 <0>       0.1300
19 H19      -1.7218     1.1013     1.2239 H      1 <0>       0.1300
20 H20       0.0556    -0.1181     2.4497 H      1 <0>       0.1000
21 H21       1.0634     1.3490     2.4480 H      1 <0>       0.0900
22 H22      -0.6901     2.5550     3.7205 H      1 <0>       0.0700
23 H23      -1.6979     1.0879     3.7222 H      1 <0>       0.0900
24 H24       0.0794    -0.1316     4.9480 H      1 <0>       0.1100
25 H25       1.0873     1.3356     4.9463 H      1 <0>       0.0900
@<TRIPOS>BOND
1    1    2 1
2    1    3 1
3    1    4 1
4    1    5 1
5    5    6 1
6    5   18 1
7    5   19 1
8    6    7 1
9    6   20 1
10    6   21 1
11    7    8 1
12    7   22 1
13    7   23 1
14    8    9 1
15    8   24 1
16    8   25 1
17    9   10 1
18    9   11 1
19    9   15 1
20   11   12 1
21   11   13 1
22   11   14 1
23   15   16 ar
24   15   17 ar
