@<TRIPOS>MOLECULE
ZINC000043450326
79    83    1     0     0
SMALL
USER_CHARGES
@<TRIPOS>ATOM
1      C1     -0.0176    1.4478    0.0100 C.3      1 ZINC000043450326    0.0300
2      O2      0.0021   -0.0041    0.0020 O.3      1 ZINC000043450326   -0.3500
3      C3      0.5984   -0.5997   -1.0427 C.2      1 ZINC000043450326    0.4500
4      O4      1.0877    0.0699   -1.9214 O.2      1 ZINC000043450326   -0.4600
5      C5      0.6575   -2.1036   -1.1196 C.3      1 ZINC000043450326   -0.1100
6      C6      1.3848   -2.5205   -2.3995 C.3      1 ZINC000043450326    0.1700
7      O7      2.7463   -2.0914   -2.3351 O.3      1 ZINC000043450326   -0.5200
8      C8      1.3361   -4.0432   -2.5408 C.3      1 ZINC000043450326   -0.1400
9      C9      1.9053   -4.6911   -1.2771 C.3      1 ZINC000043450326   -0.1200
10     C10     1.8567   -6.2138   -1.4183 C.3      1 ZINC000043450326   -0.1400
11     C11     2.4259   -6.8617   -0.1546 C.3      1 ZINC000043450326    0.1300
12     C12     2.4929   -8.3783   -0.3449 C.3      1 ZINC000043450326   -0.1800
13     C13     3.8316   -6.3180    0.1084 C.3      1 ZINC000043450326   -0.1400
14     O14     1.5819   -6.5581    0.9579 O.3      1 ZINC000043450326   -0.5600
15     C15     0.7132   -1.8839   -3.5890 C.2      1 ZINC000043450326    0.4400
16     O16    -0.1241   -2.4957   -4.2090 O.2      1 ZINC000043450326   -0.4900
17     O17     1.0453   -0.6373   -3.9597 O.3      1 ZINC000043450326   -0.2800
18     C18     0.3579   -0.0878   -5.1145 C.3      1 ZINC000043450326    0.1400
19     H19    -0.6427   -0.5079   -5.2160 H        1 ZINC000043450326    0.1200
20     C20     1.1796   -0.2750   -6.4001 C.2      1 ZINC000043450326    0.1300
21     O21     1.9299   -1.3673   -6.6908 O.3      1 ZINC000043450326   -0.2800
22     C22     2.6270   -1.3624   -7.9382 C.3      1 ZINC000043450326    0.0200
23     C23     1.0467    0.7996   -7.1931 C.2      1 ZINC000043450326   -0.3200
24     C24     0.0684    1.7252   -6.5230 C.3      1 ZINC000043450326    0.1100
25     C25    -1.3026    1.4100   -7.1433 C.3      1 ZINC000043450326   -0.1400
26     C26    -1.2823    2.3337   -8.4027 C.3      1 ZINC000043450326   -0.1500
27     C27     0.0058    3.2042   -8.2261 C.3      1 ZINC000043450326    0.0000
28     N28     0.1298    3.1818   -6.7443 N.4      1 ZINC000043450326   -0.3900
29     H29    -0.6665    3.6341   -6.3208 H        1 ZINC000043450326    0.4300
30     C30     1.3684    3.6923   -6.1633 C.3      1 ZINC000043450326    0.0100
31     C31     1.0554    4.2294   -4.7803 C.3      1 ZINC000043450326   -0.1200
32     C32     0.0060    3.5672   -3.9515 C.ar     1 ZINC000043450326   -0.0900
33     C33    -0.6036    4.3657   -2.9748 C.ar     1 ZINC000043450326   -0.0900
34     C34    -1.6023    3.8129   -2.1945 C.ar     1 ZINC000043450326    0.0500
35     C35    -2.0050    2.4808   -2.3734 C.ar     1 ZINC000043450326    0.0500
36     C36    -1.4001    1.6861   -3.3319 C.ar     1 ZINC000043450326   -0.0800
37     C37    -0.3838    2.2459   -4.1017 C.ar     1 ZINC000043450326   -0.0600
38     C38     0.3215    1.4338   -5.0695 C.3      1 ZINC000043450326   -0.0500
39     H39     1.3700    1.7078   -4.9518 H        1 ZINC000043450326    0.1100
40     O40    -2.9934    2.2006   -1.4949 O.3      1 ZINC000043450326   -0.2900
41     C41    -2.9314    3.2443   -0.5003 C.3      1 ZINC000043450326    0.2100
42     O42    -2.3385    4.3586   -1.1988 O.3      1 ZINC000043450326   -0.3000
43     H43     1.0050    1.8251    0.0023 H        1 ZINC000043450326    0.0700
44     H44    -0.5448    1.8089   -0.8731 H        1 ZINC000043450326    0.0600
45     H45    -0.5278    1.7993    0.9068 H        1 ZINC000043450326    0.1000
46     H46     1.1948   -2.4908   -0.2539 H        1 ZINC000043450326    0.1400
47     H47    -0.3550   -2.5070   -1.1292 H        1 ZINC000043450326    0.1300
48     H48     3.2689   -2.3224   -3.1153 H        1 ZINC000043450326    0.3900
49     H49     0.3031   -4.3624   -2.6791 H        1 ZINC000043450326    0.0900
50     H50     1.9289   -4.3472   -3.4035 H        1 ZINC000043450326    0.0800
51     H51     2.9383   -4.3719   -1.1388 H        1 ZINC000043450326    0.0800
52     H52     1.3125   -4.3871   -0.4143 H        1 ZINC000043450326    0.0800
53     H53     0.8237   -6.5330   -1.5566 H        1 ZINC000043450326    0.0700
54     H54     2.4495   -6.5178   -2.2810 H        1 ZINC000043450326    0.0700
55     H55     3.1367   -8.6099   -1.1934 H        1 ZINC000043450326    0.0700
56     H56     2.8984   -8.8399    0.5555 H        1 ZINC000043450326    0.0700
57     H57     1.4914   -8.7656   -0.5322 H        1 ZINC000043450326    0.0600
58     H58     3.7839   -5.2376    0.2440 H        1 ZINC000043450326    0.0700
59     H59     4.2372   -6.7796    1.0088 H        1 ZINC000043450326    0.0600
60     H60     4.4754   -6.5496   -0.7401 H        1 ZINC000043450326    0.0700
61     H61     0.6732   -6.8738    0.8599 H        1 ZINC000043450326    0.3800
62     H62     3.1866   -2.2916   -8.0454 H        1 ZINC000043450326    0.1100
63     H63     1.9102   -1.2738   -8.7546 H        1 ZINC000043450326    0.0700
64     H64     3.3158   -0.5181   -7.9662 H        1 ZINC000043450326    0.0600
65     H65     1.5479    0.9683   -8.1348 H        1 ZINC000043450326    0.1700
66     H66    -1.3724    0.3601   -7.4279 H        1 ZINC000043450326    0.1200
67     H67    -2.1118    1.6860   -6.4673 H        1 ZINC000043450326    0.1000
68     H68    -1.2165    1.7364   -9.3121 H        1 ZINC000043450326    0.1100
69     H69    -2.1695    2.9666   -8.4251 H        1 ZINC000043450326    0.1000
70     H70     0.8677    2.7375   -8.7029 H        1 ZINC000043450326    0.1400
71     H71    -0.1476    4.2181   -8.5956 H        1 ZINC000043450326    0.1400
72     H72     2.0990    2.8868   -6.0885 H        1 ZINC000043450326    0.1300
73     H73     1.7652    4.4927   -6.7877 H        1 ZINC000043450326    0.1400
74     H74     1.9822    4.2127   -4.2068 H        1 ZINC000043450326    0.1200
75     H75     0.7692    5.2750   -4.8940 H        1 ZINC000043450326    0.1000
76     H76    -0.2993    5.3923   -2.8340 H        1 ZINC000043450326    0.1500
77     H77    -1.7074    0.6611   -3.4783 H        1 ZINC000043450326    0.1400
78     H78    -3.9322    3.5003   -0.1524 H        1 ZINC000043450326    0.1400
79     H79    -2.3020    2.9386    0.3354 H        1 ZINC000043450326    0.0900
@<TRIPOS>BOND
1     1     2     1
2     1     43    1
3     1     44    1
4     1     45    1
5     2     3     1
6     3     4     2
7     3     5     1
8     5     6     1
9     5     46    1
10    5     47    1
11    6     7     1
12    6     8     1
13    6     15    1
14    7     48    1
15    8     9     1
16    8     49    1
17    8     50    1
18    9     10    1
19    9     51    1
20    9     52    1
21    10    11    1
22    10    53    1
23    10    54    1
24    11    12    1
25    11    13    1
26    11    14    1
27    12    55    1
28    12    56    1
29    12    57    1
30    13    58    1
31    13    59    1
32    13    60    1
33    14    61    1
34    15    16    2
35    15    17    1
36    17    18    1
37    18    19    1
38    18    38    1
39    18    20    1
40    20    21    1
41    20    23    2
42    21    22    1
43    22    62    1
44    22    63    1
45    22    64    1
46    23    24    1
47    23    65    1
48    24    28    1
49    24    38    1
50    24    25    1
51    25    26    1
52    25    66    1
53    25    67    1
54    26    27    1
55    26    68    1
56    26    69    1
57    27    28    1
58    27    70    1
59    27    71    1
60    28    29    1
61    28    30    1
62    30    31    1
63    30    72    1
64    30    73    1
65    31    32    1
66    31    74    1
67    31    75    1
68    32    37    ar
69    32    33    ar
70    33    34    ar
71    33    76    1
72    34    42    1
73    34    35    ar
74    35    36    ar
75    35    40    1
76    36    37    ar
77    36    77    1
78    37    38    1
79    38    39    1
80    40    41    1
81    41    42    1
82    41    78    1
83    41    79    1
@<TRIPOS>SUBSTRUCTURE
1   ZINC000043450326 1     RESIDUE    1   A     ZIN   1
