@<TRIPOS>MOLECULE
ZINC000008577218
49    51    1     0     0
SMALL
USER_CHARGES
@<TRIPOS>ATOM
1      N1     -0.0165    1.3664    0.0096 N.pl3    1 ZINC000008577218   -0.8100
2      C2      0.0021   -0.0041    0.0020 C.2      1 ZINC000008577218    0.6700
3      N3     -1.1414   -0.6437    0.0041 N.2      1 ZINC000008577218   -0.5800
4      C4     -1.2008   -1.9883   -0.0033 C.ar     1 ZINC000008577218    0.3600
5      N5     -2.3674   -2.6338   -0.0017 N.ar     1 ZINC000008577218   -0.4400
6      C6     -2.3832   -3.9522   -0.0096 C.ar     1 ZINC000008577218    0.1500
7      C7     -1.1958   -4.6768   -0.0192 C.ar     1 ZINC000008577218    0.0300
8      C8     -1.2395   -6.1831   -0.0276 C.3      1 ZINC000008577218    0.1900
9      N9     -1.1397   -6.6669   -1.4068 N.pl3    1 ZINC000008577218   -0.7400
10     C10    -1.1583   -8.0325   -1.6676 C.ar     1 ZINC000008577218    0.2200
11     C11    -1.2776   -8.9387   -0.6174 C.ar     1 ZINC000008577218   -0.2100
12     C12    -1.2963  -10.2909   -0.8723 C.ar     1 ZINC000008577218   -0.0200
13     C13    -1.1954  -10.7542   -2.1874 C.ar     1 ZINC000008577218   -0.1600
14     C14    -1.2157  -12.2031   -2.4641 C.2      1 ZINC000008577218    0.5500
15     O15    -1.3202  -12.9957   -1.5479 O.2      1 ZINC000008577218   -0.5600
16     N16    -1.1183  -12.6483   -3.7325 N.am     1 ZINC000008577218   -0.6800
17     C17    -1.1384  -14.0872   -4.0073 C.3      1 ZINC000008577218    0.0700
18     H18    -1.8072  -14.5822   -3.3032 H        1 ZINC000008577218    0.0800
19     C19    -1.6331  -14.3268   -5.4352 C.3      1 ZINC000008577218   -0.0800
20     C20    -3.0890  -13.8717   -5.5537 C.3      1 ZINC000008577218   -0.1800
21     C21    -3.5762  -14.1077   -6.9601 C.2      1 ZINC000008577218    0.4900
22     O22    -2.8282  -14.5948   -7.7907 O.co2    1 ZINC000008577218   -0.7000
23     O23    -4.7183  -13.8116   -7.2674 O.co2    1 ZINC000008577218   -0.7200
24     C24     0.2527  -14.6468   -3.8570 C.2      1 ZINC000008577218    0.5000
25     O25     0.4098  -15.8019   -3.4999 O.co2    1 ZINC000008577218   -0.7000
26     O26     1.2211  -13.9444   -4.0926 O.co2    1 ZINC000008577218   -0.7000
27     C27    -1.0758   -9.8417   -3.2397 C.ar     1 ZINC000008577218   -0.0400
28     C28    -1.0633   -8.4907   -2.9788 C.ar     1 ZINC000008577218   -0.2000
29     N29    -0.0327   -4.0564   -0.0215 N.ar     1 ZINC000008577218   -0.3400
30     C30     0.0025   -2.7310   -0.0137 C.ar     1 ZINC000008577218   -0.0700
31     C31     1.2750   -1.9888   -0.0163 C.2      1 ZINC000008577218    0.5800
32     O32     2.3445   -2.5693   -0.0258 O.2      1 ZINC000008577218   -0.4700
33     N33     1.2097   -0.6371   -0.0129 N.am     1 ZINC000008577218   -0.6600
34     H34     0.8168    1.8628    0.0043 H        1 ZINC000008577218    0.4200
35     H35    -0.8630    1.8400    0.0161 H        1 ZINC000008577218    0.4300
36     H36    -3.3281   -4.4752   -0.0082 H        1 ZINC000008577218    0.1900
37     H37    -0.4058   -6.5740    0.5558 H        1 ZINC000008577218    0.0800
38     H38    -2.1789   -6.5218    0.4092 H        1 ZINC000008577218    0.0900
39     H39    -1.0606   -6.0345   -2.1380 H        1 ZINC000008577218    0.4000
40     H40    -1.3551   -8.5801    0.3983 H        1 ZINC000008577218    0.1200
41     H41    -1.3885  -10.9933   -0.0572 H        1 ZINC000008577218    0.1300
42     H42    -1.0349  -12.0161   -4.4634 H        1 ZINC000008577218    0.3900
43     H43    -1.0171  -13.7596   -6.1331 H        1 ZINC000008577218    0.0600
44     H44    -1.5641  -15.3889   -5.6701 H        1 ZINC000008577218    0.0700
45     H45    -3.7049  -14.4389   -4.8558 H        1 ZINC000008577218    0.0500
46     H46    -3.1579  -12.8095   -5.3188 H        1 ZINC000008577218    0.0500
47     H47    -0.9973  -10.1967   -4.2567 H        1 ZINC000008577218    0.1300
48     H48    -0.9713   -7.7852   -3.7914 H        1 ZINC000008577218    0.1200
49     H49     2.0274   -0.1152   -0.0148 H        1 ZINC000008577218    0.4200
@<TRIPOS>BOND
1     1     2     1
2     1     34    1
3     1     35    1
4     2     33    1
5     2     3     2
6     3     4     1
7     4     30    ar
8     4     5     ar
9     5     6     ar
10    6     7     ar
11    6     36    1
12    7     8     1
13    7     29    ar
14    8     9     1
15    8     37    1
16    8     38    1
17    9     10    1
18    9     39    1
19    10    28    ar
20    10    11    ar
21    11    12    ar
22    11    40    1
23    12    13    ar
24    12    41    1
25    13    14    1
26    13    27    ar
27    14    15    2
28    14    16    am
29    16    17    1
30    16    42    1
31    17    18    1
32    17    19    1
33    17    24    1
34    19    20    1
35    19    43    1
36    19    44    1
37    20    21    1
38    20    45    1
39    20    46    1
40    21    22    ar
41    21    23    ar
42    24    25    ar
43    24    26    ar
44    27    28    ar
45    27    47    1
46    28    48    1
47    29    30    ar
48    30    31    1
49    31    32    2
50    31    33    am
51    33    49    1
@<TRIPOS>SUBSTRUCTURE
1   ZINC000008577218 1     RESIDUE    1   A     ZIN   1
