@<TRIPOS>MOLECULE
ZINC000000015515
43    45    1     0     0
SMALL
USER_CHARGES
@<TRIPOS>ATOM
1      C1     -0.0178    1.4648    0.0101 C.3      1 ZINC000000015515   -0.0500
2      N2      0.0021   -0.0041    0.0020 N.4      1 ZINC000000015515   -0.3900
3      H3      0.4744   -0.3295   -0.8281 H        1 ZINC000000015515    0.4300
4      C4      0.7126   -0.4907    1.1921 C.3      1 ZINC000000015515   -0.0500
5      C5     -1.3761   -0.5125    0.0124 C.3      1 ZINC000000015515   -0.0100
6      C6     -2.0780   -0.1101   -1.2861 C.3      1 ZINC000000015515   -0.0600
7      C7     -3.4918   -0.6317   -1.2754 C.2      1 ZINC000000015515   -0.2100
8      C8     -3.9216   -1.7847   -1.8120 C.2      1 ZINC000000015515    0.0900
9      N9     -5.2675   -1.9218   -1.6067 N.pl3    1 ZINC000000015515   -0.5900
10     C10    -5.7489   -0.8327   -0.9154 C.ar     1 ZINC000000015515    0.1000
11     C11    -7.0112   -0.4709   -0.4570 C.ar     1 ZINC000000015515   -0.1100
12     C12    -7.1784    0.7164    0.2219 C.ar     1 ZINC000000015515   -0.0900
13     C13    -6.0989    1.5573    0.4539 C.ar     1 ZINC000000015515   -0.1000
14     C14    -6.3056    2.8507    1.1991 C.3      1 ZINC000000015515   -0.0900
15     C15    -6.1162    2.6114    2.6983 C.3      1 ZINC000000015515    0.1000
16     H16    -5.1486    2.1484    2.8919 H        1 ZINC000000015515    0.1000
17     C17    -6.2493    3.9335    3.4785 C.3      1 ZINC000000015515    0.0400
18     O18    -7.3884    3.7102    4.3592 O.3      1 ZINC000000015515   -0.3200
19     C19    -7.8708    2.4784    4.1609 C.2      1 ZINC000000015515    0.6400
20     O20    -8.8248    2.0341    4.7683 O.2      1 ZINC000000015515   -0.5100
21     N21    -7.2042    1.7763    3.2297 N.am     1 ZINC000000015515   -0.7300
22     C22    -4.8499    1.2214    0.0124 C.ar     1 ZINC000000015515   -0.0800
23     C23    -4.6566    0.0203   -0.6720 C.ar     1 ZINC000000015515   -0.1000
24     H24     1.0047    1.8421    0.0024 H        1 ZINC000000015515    0.1200
25     H25    -0.5450    1.8259   -0.8730 H        1 ZINC000000015515    0.1200
26     H26    -0.5280    1.8163    0.9069 H        1 ZINC000000015515    0.1200
27     H27     0.2024   -0.1392    2.0889 H        1 ZINC000000015515    0.1200
28     H28     0.7273   -1.5806    1.1861 H        1 ZINC000000015515    0.1200
29     H29     1.7352   -0.1134    1.1844 H        1 ZINC000000015515    0.1200
30     H30    -1.3618   -1.5992    0.0960 H        1 ZINC000000015515    0.1300
31     H31    -1.9129   -0.0898    0.8617 H        1 ZINC000000015515    0.1300
32     H32    -2.0923    0.9766   -1.3697 H        1 ZINC000000015515    0.0900
33     H33    -1.5412   -0.5328   -2.1354 H        1 ZINC000000015515    0.0900
34     H34    -3.2975   -2.4983   -2.3295 H        1 ZINC000000015515    0.1700
35     H35    -5.8027   -2.6742   -1.9039 H        1 ZINC000000015515    0.4200
36     H36    -7.8576   -1.1183   -0.6329 H        1 ZINC000000015515    0.1300
37     H37    -8.1595    0.9958    0.5766 H        1 ZINC000000015515    0.1300
38     H38    -5.5808    3.5884    0.8545 H        1 ZINC000000015515    0.0900
39     H39    -7.3147    3.2191    1.0146 H        1 ZINC000000015515    0.0900
40     H40    -5.3482    4.1260    4.0607 H        1 ZINC000000015515    0.1100
41     H41    -6.4493    4.7607    2.7974 H        1 ZINC000000015515    0.1100
42     H42    -7.4094    0.8696    2.9528 H        1 ZINC000000015515    0.4300
43     H43    -4.0146    1.8807    0.1966 H        1 ZINC000000015515    0.1200
@<TRIPOS>BOND
1     1     2     1
2     1     24    1
3     1     25    1
4     1     26    1
5     2     3     1
6     2     4     1
7     2     5     1
8     4     27    1
9     4     28    1
10    4     29    1
11    5     6     1
12    5     30    1
13    5     31    1
14    6     7     1
15    6     32    1
16    6     33    1
17    7     23    1
18    7     8     2
19    8     9     1
20    8     34    1
21    9     10    1
22    9     35    1
23    10    23    ar
24    10    11    ar
25    11    12    ar
26    11    36    1
27    12    13    ar
28    12    37    1
29    13    14    1
30    13    22    ar
31    14    15    1
32    14    38    1
33    14    39    1
34    15    16    1
35    15    21    1
36    15    17    1
37    17    18    1
38    17    40    1
39    17    41    1
40    18    19    1
41    19    20    2
42    19    21    am
43    21    42    1
44    22    23    ar
45    22    43    1
@<TRIPOS>SUBSTRUCTURE
1   ZINC000000015515 1     RESIDUE    1   A     ZIN   1
