@<TRIPOS>MOLECULE
ZINC000001552174
54   57    0    0    0
SMALL
USER_CHARGES
NO_NAME
@<TRIPOS>ATOM
1 O1        0.0021    -0.0041     0.0020 O.2    1 <0>      -0.5300
2 C2       -0.0144     1.2087     0.0087 C.2    1 <0>       0.5200
3 C3       -1.3325     1.9347     0.0314 C.3    1 <0>      -0.1400
4 C4       -1.2106     3.2095     0.8667 C.3    1 <0>      -0.0800
5 C5        0.0150     3.9757     0.4412 C.ar   1 <0>      -0.0800
6 C6        0.0143     5.3557     0.4693 C.ar   1 <0>      -0.1200
7 C7        1.1449     6.0579     0.0769 C.ar   1 <0>       0.1100
8 O8        1.1442     7.4173     0.1046 O.3    1 <0>      -0.3100
9 C9        2.3420     8.0754    -0.3128 C.3    1 <0>       0.0600
10 C10       2.1525     9.5904    -0.2141 C.3    1 <0>      -0.1200
11 C11       3.4350    10.2949    -0.6610 C.3    1 <0>      -0.1100
12 C12       3.2455    11.8100    -0.5623 C.3    1 <0>      -0.0400
13 C13       4.5087    12.5039    -1.0025 C.2    1 <0>       0.1800
14 N14       5.5229    12.8392    -0.2429 N.2    1 <0>      -0.3000
15 N15       6.4057    13.4107    -0.9871 N.2    1 <0>      -0.0800
16 N16       5.9810    13.4487    -2.2019 N.2    1 <0>      -0.0900
17 N17       4.8171    12.8945    -2.2531 N.pl3  1 <0>      -0.3000
18 C18       3.9835    12.7299    -3.4465 C.3    1 <0>       0.1400
19 C19       3.6622    14.1041    -4.0377 C.3    1 <0>      -0.1300
20 C20       2.7916    13.9322    -5.2840 C.3    1 <0>      -0.1200
21 C21       3.5439    13.0945    -6.3200 C.3    1 <0>      -0.1300
22 C22       3.8652    11.7204    -5.7289 C.3    1 <0>      -0.1200
23 C23       4.7358    11.8923    -4.4825 C.3    1 <0>      -0.1300
24 C24       2.2760     5.3738    -0.3431 C.ar   1 <0>      -0.1800
25 C25       2.2781     3.9929    -0.3708 C.ar   1 <0>      -0.1100
26 C26       1.1472     3.2898     0.0211 C.ar   1 <0>       0.1200
27 N27       1.1462     1.8897     0.0013 N.am   1 <0>      -0.6600
28 H28      -1.6198     2.1954    -0.9872 H      1 <0>       0.1000
29 H29      -2.0944     1.2881     0.4668 H      1 <0>       0.1100
30 H30      -2.0956     3.8279     0.7168 H      1 <0>       0.1000
31 H31      -1.1263     2.9462     1.9211 H      1 <0>       0.0900
32 H32      -0.8662     5.8888     0.7963 H      1 <0>       0.1400
33 H33       3.1674     7.7698     0.3302 H      1 <0>       0.0700
34 H34       2.5652     7.8036    -1.3445 H      1 <0>       0.0600
35 H35       1.3271     9.8960    -0.8570 H      1 <0>       0.0800
36 H36       1.9293     9.8622     0.8176 H      1 <0>       0.0800
37 H37       4.2604     9.9893    -0.0180 H      1 <0>       0.0800
38 H38       3.6582    10.0232    -1.6927 H      1 <0>       0.0700
39 H39       2.4201    12.1156    -1.2052 H      1 <0>       0.0900
40 H40       3.0223    12.0817     0.4694 H      1 <0>       0.1100
41 H41       3.0562    12.2253    -3.1752 H      1 <0>       0.1200
42 H42       3.1262    14.7008    -3.2996 H      1 <0>       0.0700
43 H43       4.5894    14.6087    -4.3089 H      1 <0>       0.0800
44 H44       1.8643    13.4275    -5.0127 H      1 <0>       0.0700
45 H45       2.5627    14.9111    -5.7052 H      1 <0>       0.0800
46 H46       2.9236    12.9721    -7.2080 H      1 <0>       0.0700
47 H47       4.4711    13.5992    -6.5913 H      1 <0>       0.0700
48 H48       2.9379    11.2157    -5.4576 H      1 <0>       0.0700
49 H49       4.4011    11.1237    -6.4670 H      1 <0>       0.0800
50 H50       5.6630    12.3970    -4.7538 H      1 <0>       0.0800
51 H51       4.9647    10.9134    -4.0614 H      1 <0>       0.0700
52 H52       3.1556     5.9211    -0.6484 H      1 <0>       0.1300
53 H53       3.1591     3.4604    -0.6976 H      1 <0>       0.1300
54 H54       1.9875     1.4075    -0.0211 H      1 <0>       0.4100
@<TRIPOS>BOND
1    1    2 2
2    2   27 am
3    2    3 1
4    3    4 1
5    3   28 1
6    3   29 1
7    4    5 1
8    4   30 1
9    4   31 1
10    5   26 ar
11    5    6 ar
12    6    7 ar
13    6   32 1
14    7    8 1
15    7   24 ar
16    8    9 1
17    9   10 1
18    9   33 1
19    9   34 1
20   10   11 1
21   10   35 1
22   10   36 1
23   11   12 1
24   11   37 1
25   11   38 1
26   12   13 1
27   12   39 1
28   12   40 1
29   13   17 1
30   13   14 2
31   14   15 1
32   15   16 2
33   16   17 1
34   17   18 1
35   18   23 1
36   18   19 1
37   18   41 1
38   19   20 1
39   19   42 1
40   19   43 1
41   20   21 1
42   20   44 1
43   20   45 1
44   21   22 1
45   21   46 1
46   21   47 1
47   22   23 1
48   22   48 1
49   22   49 1
50   23   50 1
51   23   51 1
52   24   25 ar
53   24   52 1
54   25   26 ar
55   25   53 1
56   26   27 1
57   27   54 1
