@<TRIPOS>MOLECULE
ZINC000003872566
76    79    1     0     0
SMALL
USER_CHARGES
@<TRIPOS>ATOM
1      C1     -0.0187    1.5258    0.0104 C.3      1 ZINC000003872566   -0.1200
2      C2      0.0021   -0.0041    0.0020 C.3      1 ZINC000003872566   -0.1100
3      C3      0.7421   -0.5109    1.2415 C.3      1 ZINC000003872566   -0.1100
4      C4     -1.4117   -0.5257    0.0127 C.2      1 ZINC000003872566    0.5100
5      O5     -2.3491    0.2539    0.0259 O.co2    1 ZINC000003872566   -0.6900
6      O6     -1.6182   -1.7273    0.0082 O.co2    1 ZINC000003872566   -0.6900
7      C7      0.7074   -0.4901   -1.2379 C.ar     1 ZINC000003872566   -0.0200
8      C8      1.2168    0.4202   -2.1450 C.ar     1 ZINC000003872566   -0.1300
9      C9      1.8638   -0.0256   -3.2823 C.ar     1 ZINC000003872566   -0.1200
10     C10     2.0019   -1.3817   -3.5123 C.ar     1 ZINC000003872566   -0.1600
11     C11     2.7068   -1.8677   -4.7524 C.3      1 ZINC000003872566    0.1600
12     H12     2.7204   -1.0725   -5.4978 H        1 ZINC000003872566    0.1000
13     O13     2.0164   -3.0025   -5.2790 O.3      1 ZINC000003872566   -0.5600
14     C14     4.1428   -2.2621   -4.4013 C.3      1 ZINC000003872566   -0.1400
15     C15     4.8958   -2.6368   -5.6794 C.3      1 ZINC000003872566   -0.1500
16     C16     6.3318   -3.0312   -5.3283 C.3      1 ZINC000003872566   -0.0100
17     N17     7.0547   -3.3910   -6.5555 N.4      1 ZINC000003872566   -0.3800
18     H18     6.5468   -4.1128   -7.0445 H        1 ZINC000003872566    0.4200
19     C19     8.3917   -3.8863   -6.2066 C.3      1 ZINC000003872566    0.0000
20     C20     9.1192   -4.3384   -7.4745 C.3      1 ZINC000003872566   -0.1500
21     C21     9.2471   -3.1516   -8.4338 C.3      1 ZINC000003872566   -0.1300
22     C22     9.9027   -3.6148   -9.7363 C.3      1 ZINC000003872566    0.2400
23     O23     9.0979   -4.6296  -10.3400 O.3      1 ZINC000003872566   -0.5400
24     C24    10.0278   -2.4458  -10.6791 C.ar     1 ZINC000003872566   -0.0800
25     C25    10.1896   -1.1678  -10.1778 C.ar     1 ZINC000003872566   -0.1200
26     C26    10.3044   -0.0955  -11.0426 C.ar     1 ZINC000003872566   -0.1200
27     C27    10.2578   -0.3013  -12.4088 C.ar     1 ZINC000003872566   -0.1100
28     C28    10.0969   -1.5795  -12.9101 C.ar     1 ZINC000003872566   -0.1200
29     C29     9.9864   -2.6523  -12.0454 C.ar     1 ZINC000003872566   -0.0900
30     C30    11.2720   -4.1698   -9.4398 C.ar     1 ZINC000003872566   -0.1200
31     C31    11.9965   -3.6857   -8.3666 C.ar     1 ZINC000003872566   -0.1200
32     C32    13.2525   -4.1948   -8.0946 C.ar     1 ZINC000003872566   -0.1200
33     C33    13.7840   -5.1883   -8.8955 C.ar     1 ZINC000003872566   -0.1100
34     C34    13.0591   -5.6730   -9.9681 C.ar     1 ZINC000003872566   -0.1100
35     C35    11.8013   -5.1669  -10.2376 C.ar     1 ZINC000003872566   -0.1000
36     C36     7.8514   -2.5963   -8.7322 C.3      1 ZINC000003872566   -0.1400
37     C37     7.1724   -2.2084   -7.4168 C.3      1 ZINC000003872566   -0.0100
38     C38     1.4937   -2.2919   -2.6045 C.ar     1 ZINC000003872566   -0.1200
39     C39     0.8501   -1.8461   -1.4653 C.ar     1 ZINC000003872566   -0.0900
40     H40     1.0039    1.9031    0.0027 H        1 ZINC000003872566    0.0300
41     H41    -0.5459    1.8868   -0.8726 H        1 ZINC000003872566    0.0500
42     H42    -0.5289    1.8773    0.9072 H        1 ZINC000003872566    0.0600
43     H43     0.2319   -0.1594    2.1383 H        1 ZINC000003872566    0.0500
44     H44     0.7568   -1.6008    1.2356 H        1 ZINC000003872566    0.0600
45     H45     1.7647   -0.1336    1.2338 H        1 ZINC000003872566    0.0400
46     H46     1.1090    1.4797   -1.9653 H        1 ZINC000003872566    0.1300
47     H47     2.2612    0.6856   -3.9913 H        1 ZINC000003872566    0.1100
48     H48     1.9656   -3.7504   -4.6681 H        1 ZINC000003872566    0.3800
49     H49     4.6425   -1.4224   -3.9182 H        1 ZINC000003872566    0.0800
50     H50     4.1298   -3.1158   -3.7237 H        1 ZINC000003872566    0.0800
51     H51     4.3961   -3.4765   -6.1625 H        1 ZINC000003872566    0.0900
52     H52     4.9088   -1.7831   -6.3570 H        1 ZINC000003872566    0.0900
53     H53     6.8314   -2.1916   -4.8452 H        1 ZINC000003872566    0.1300
54     H54     6.3187   -3.8850   -4.6507 H        1 ZINC000003872566    0.1300
55     H55     8.9600   -3.0896   -5.7266 H        1 ZINC000003872566    0.1300
56     H56     8.2991   -4.7289   -5.5213 H        1 ZINC000003872566    0.1300
57     H57    10.1123   -4.7042   -7.2136 H        1 ZINC000003872566    0.1200
58     H58     8.5518   -5.1354   -7.9552 H        1 ZINC000003872566    0.0900
59     H59     9.8587   -2.3754   -7.9738 H        1 ZINC000003872566    0.1000
60     H60     8.9745   -5.4139   -9.7880 H        1 ZINC000003872566    0.3800
61     H61    10.2260   -1.0070   -9.1105 H        1 ZINC000003872566    0.1200
62     H62    10.4301    0.9031  -10.6510 H        1 ZINC000003872566    0.1300
63     H63    10.3468    0.5365  -13.0844 H        1 ZINC000003872566    0.1300
64     H64    10.0602   -1.7402  -13.9775 H        1 ZINC000003872566    0.1300
65     H65     9.8607   -3.6508  -12.4370 H        1 ZINC000003872566    0.1300
66     H66    11.5813   -2.9095   -7.7409 H        1 ZINC000003872566    0.1200
67     H67    13.8188   -3.8161   -7.2566 H        1 ZINC000003872566    0.1300
68     H68    14.7656   -5.5855   -8.6834 H        1 ZINC000003872566    0.1300
69     H69    13.4745   -6.4489  -10.5941 H        1 ZINC000003872566    0.1300
70     H70    11.2350   -5.5456  -11.0756 H        1 ZINC000003872566    0.1300
71     H71     7.9383   -1.7168   -9.3702 H        1 ZINC000003872566    0.1200
72     H72     7.2577   -3.3572   -9.2389 H        1 ZINC000003872566    0.1000
73     H73     6.1784   -1.8123   -7.6246 H        1 ZINC000003872566    0.1300
74     H74     7.7675   -1.4474   -6.9119 H        1 ZINC000003872566    0.1300
75     H75     1.6019   -3.3514   -2.7840 H        1 ZINC000003872566    0.1100
76     H76     0.4531   -2.5573   -0.7560 H        1 ZINC000003872566    0.1400
@<TRIPOS>BOND
1     1     2     1
2     1     40    1
3     1     41    1
4     1     42    1
5     2     3     1
6     2     4     1
7     2     7     1
8     3     43    1
9     3     44    1
10    3     45    1
11    4     5     ar
12    4     6     ar
13    7     39    ar
14    7     8     ar
15    8     9     ar
16    8     46    1
17    9     10    ar
18    9     47    1
19    10    11    1
20    10    38    ar
21    11    12    1
22    11    13    1
23    11    14    1
24    13    48    1
25    14    15    1
26    14    49    1
27    14    50    1
28    15    16    1
29    15    51    1
30    15    52    1
31    16    17    1
32    16    53    1
33    16    54    1
34    17    18    1
35    17    37    1
36    17    19    1
37    19    20    1
38    19    55    1
39    19    56    1
40    20    21    1
41    20    57    1
42    20    58    1
43    21    22    1
44    21    36    1
45    21    59    1
46    22    23    1
47    22    24    1
48    22    30    1
49    23    60    1
50    24    29    ar
51    24    25    ar
52    25    26    ar
53    25    61    1
54    26    27    ar
55    26    62    1
56    27    28    ar
57    27    63    1
58    28    29    ar
59    28    64    1
60    29    65    1
61    30    35    ar
62    30    31    ar
63    31    32    ar
64    31    66    1
65    32    33    ar
66    32    67    1
67    33    34    ar
68    33    68    1
69    34    35    ar
70    34    69    1
71    35    70    1
72    36    37    1
73    36    71    1
74    36    72    1
75    37    73    1
76    37    74    1
77    38    39    ar
78    38    75    1
79    39    76    1
@<TRIPOS>SUBSTRUCTURE
1   ZINC000003872566 1     RESIDUE    1   A     ZIN   1
