@<TRIPOS>MOLECULE
ZINC000003831139
34   35    0    0    0
SMALL
USER_CHARGES
NO_NAME
@<TRIPOS>ATOM
1 N1        0.4152     1.0674     0.2955 N.am   1 <0>      -0.8500
2 C2        0.3024    -0.2672     0.1449 C.2    1 <0>       0.5500
3 O3        1.2951    -0.9456    -0.0139 O.2    1 <0>      -0.5400
4 C4       -1.0572    -0.9165     0.1738 C.3    1 <0>      -0.5000
5 S5       -0.8772    -2.7071    -0.0542 S.o    1 <0>       1.3200
6 O6       -0.3326    -2.9684    -1.3404 O.2    1 <0>      -0.8000
7 C7       -2.5902    -3.3007     0.0091 C.3    1 <0>      -0.3500
8 C8       -3.4154    -2.5635    -1.0139 C.ar   1 <0>      -0.0800
9 C9       -3.0057    -2.5231    -2.3335 C.ar   1 <0>      -0.1300
10 C10      -3.7627    -1.8468    -3.2719 C.ar   1 <0>      -0.1100
11 C11      -4.9296    -1.2113    -2.8907 C.ar   1 <0>      -0.1200
12 C12      -5.3398    -1.2525    -1.5713 C.ar   1 <0>      -0.1200
13 C13      -4.5850    -1.9324    -0.6337 C.ar   1 <0>      -0.1100
14 C14      -2.6214    -4.7774    -0.2900 C.ar   1 <0>      -0.0600
15 C15      -2.0208    -5.2633    -1.4363 C.ar   1 <0>      -0.1200
16 C16      -2.0494    -6.6179    -1.7106 C.ar   1 <0>      -0.1100
17 C17      -2.6782    -7.4866    -0.8384 C.ar   1 <0>      -0.1200
18 C18      -3.2780    -7.0008     0.3084 C.ar   1 <0>      -0.1200
19 C19      -3.2457    -5.6468     0.5849 C.ar   1 <0>      -0.1100
20 H20       1.2904     1.4853     0.2768 H      1 <0>       0.4100
21 H21      -0.3790     1.6104     0.4185 H      1 <0>       0.4000
22 H22      -1.5340    -0.7186     1.1338 H      1 <0>       0.1500
23 H23      -1.6720    -0.5081    -0.6283 H      1 <0>       0.1200
24 H24      -2.9999    -3.1226     1.0033 H      1 <0>       0.1400
25 H25      -2.0940    -3.0196    -2.6313 H      1 <0>       0.1400
26 H26      -3.4422    -1.8147    -4.3027 H      1 <0>       0.1200
27 H27      -5.5207    -0.6824    -3.6237 H      1 <0>       0.1200
28 H28      -6.2513    -0.7557    -1.2734 H      1 <0>       0.1200
29 H29      -4.9055    -1.9646     0.3971 H      1 <0>       0.1300
30 H30      -1.5295    -4.5846    -2.1178 H      1 <0>       0.1400
31 H31      -1.5808    -6.9974    -2.6066 H      1 <0>       0.1200
32 H32      -2.7012    -8.5448    -1.0530 H      1 <0>       0.1200
33 H33      -3.7696    -7.6795     0.9897 H      1 <0>       0.1200
34 H34      -3.7143    -5.2672     1.4809 H      1 <0>       0.1300
@<TRIPOS>BOND
1    1    2 am
2    1   20 1
3    1   21 1
4    2    3 2
5    2    4 1
6    4    5 1
7    4   22 1
8    4   23 1
9    5    6 2
10    5    7 1
11    7    8 1
12    7   14 1
13    7   24 1
14    8   13 ar
15    8    9 ar
16    9   10 ar
17    9   25 1
18   10   11 ar
19   10   26 1
20   11   12 ar
21   11   27 1
22   12   13 ar
23   12   28 1
24   13   29 1
25   14   19 ar
26   14   15 ar
27   15   16 ar
28   15   30 1
29   16   17 ar
30   16   31 1
31   17   18 ar
32   17   32 1
33   18   19 ar
34   18   33 1
35   19   34 1
