@<TRIPOS>MOLECULE
ZINC000000601250
40    42    1     0     0
SMALL
USER_CHARGES
@<TRIPOS>ATOM
1      Cl1    -1.9790    0.5091   -0.9972 Cl       1 ZINC000000601250   -0.0500
2      C2     -1.6169    2.1906   -0.7621 C.ar     1 ZINC000000601250   -0.0200
3      C3     -2.6375    3.0893   -0.5079 C.ar     1 ZINC000000601250   -0.1100
4      C4     -2.3486    4.4279   -0.3209 C.ar     1 ZINC000000601250   -0.0800
5      C5     -1.0402    4.8689   -0.3882 C.ar     1 ZINC000000601250   -0.0900
6      C6     -0.7259    6.3287   -0.1846 C.3      1 ZINC000000601250   -0.0600
7      S7     -0.4216    6.6419    1.5760 S.3      1 ZINC000000601250   -0.1600
8      C8      0.0725    8.3871    1.6006 C.3      1 ZINC000000601250   -0.0600
9      H9     -0.6685    8.9821    1.0668 H        1 ZINC000000601250    0.1200
10     C10     1.4351    8.5410    0.9220 C.3      1 ZINC000000601250    0.1000
11     N11     1.7701    9.9632    0.8162 N.pl3    1 ZINC000000601250   -0.4000
12     C12     1.4054   10.8106   -0.1951 C.2      1 ZINC000000601250    0.0300
13     C13     1.9204   12.0185    0.1039 C.2      1 ZINC000000601250    0.0100
14     N14     2.5814   11.9116    1.2660 N.pl3    1 ZINC000000601250   -0.4700
15     H15     3.0493   12.6334    1.7143 H        1 ZINC000000601250    0.4700
16     C16     2.4914   10.6846    1.7011 C.cat    1 ZINC000000601250    0.2900
17     C17     0.1654    8.8628    3.0275 C.ar     1 ZINC000000601250   -0.0800
18     C18     0.5058    7.9755    4.0308 C.ar     1 ZINC000000601250   -0.0700
19     C19     0.5908    8.4111    5.3401 C.ar     1 ZINC000000601250   -0.0900
20     C20     0.3355    9.7357    5.6466 C.ar     1 ZINC000000601250   -0.0100
21     Cl21    0.4429   10.2826    7.2907 Cl       1 ZINC000000601250   -0.0300
22     C22    -0.0048   10.6246    4.6425 C.ar     1 ZINC000000601250   -0.1000
23     C23    -0.0846   10.1894    3.3321 C.ar     1 ZINC000000601250   -0.0300
24     Cl24   -0.5110   11.3041    2.0715 Cl       1 ZINC000000601250   -0.0600
25     C25    -0.0198    3.9713   -0.6417 C.ar     1 ZINC000000601250   -0.0900
26     C26    -0.3069    2.6315   -0.8232 C.ar     1 ZINC000000601250   -0.1100
27     H27    -3.6599    2.7451   -0.4560 H        1 ZINC000000601250    0.1400
28     H28    -3.1453    5.1296   -0.1224 H        1 ZINC000000601250    0.1400
29     H29     0.1618    6.5928   -0.7594 H        1 ZINC000000601250    0.0900
30     H30    -1.5691    6.9321   -0.5206 H        1 ZINC000000601250    0.1000
31     H31     2.1955    8.0317    1.5140 H        1 ZINC000000601250    0.1400
32     H32     1.3962    8.1018   -0.0749 H        1 ZINC000000601250    0.1300
33     H33     0.8180   10.5587   -1.0657 H        1 ZINC000000601250    0.2200
34     H34     1.8188   12.9159   -0.4883 H        1 ZINC000000601250    0.2200
35     H35     2.9273   10.3069    2.6142 H        1 ZINC000000601250    0.2500
36     H36     0.7051    6.9413    3.7920 H        1 ZINC000000601250    0.1600
37     H37     0.8561    7.7170    6.1238 H        1 ZINC000000601250    0.1500
38     H38    -0.2042   11.6588    4.8814 H        1 ZINC000000601250    0.1500
39     H39     1.0022    4.3164   -0.6941 H        1 ZINC000000601250    0.1300
40     H40     0.4903    1.9303   -1.0209 H        1 ZINC000000601250    0.1400
@<TRIPOS>BOND
1     1     2     1
2     2     26    ar
3     2     3     ar
4     3     4     ar
5     3     27    1
6     4     5     ar
7     4     28    1
8     5     6     1
9     5     25    ar
10    6     7     1
11    6     29    1
12    6     30    1
13    7     8     1
14    8     9     1
15    8     10    1
16    8     17    1
17    10    11    1
18    10    31    1
19    10    32    1
20    11    16    ar
21    11    12    1
22    12    13    2
23    12    33    1
24    13    14    1
25    13    34    1
26    14    15    1
27    14    16    ar
28    16    35    1
29    17    23    ar
30    17    18    ar
31    18    19    ar
32    18    36    1
33    19    20    ar
34    19    37    1
35    20    21    1
36    20    22    ar
37    22    23    ar
38    22    38    1
39    23    24    1
40    25    26    ar
41    25    39    1
42    26    40    1
@<TRIPOS>SUBSTRUCTURE
1   ZINC000000601250 1     RESIDUE    1   A     ZIN   1
