@<TRIPOS>MOLECULE
ZINC000001530625
53    55    1     0     0
SMALL
USER_CHARGES
@<TRIPOS>ATOM
1      C1     -0.0187    1.5258    0.0104 C.3      1 ZINC000001530625   -0.1500
2      C2      0.0021   -0.0041    0.0020 C.3      1 ZINC000001530625   -0.1300
3      C3      0.7421   -0.5109    1.2415 C.3      1 ZINC000001530625   -0.1200
4      C4      0.7628   -2.0407    1.2331 C.3      1 ZINC000001530625   -0.1100
5      C5      1.5028   -2.5476    2.4727 C.3      1 ZINC000001530625   -0.0800
6      C6      1.5232   -4.0544    2.4644 C.ar     1 ZINC000001530625   -0.0300
7      C7      0.4987   -4.7610    3.0641 C.ar     1 ZINC000001530625   -0.1800
8      C8      0.5173   -6.1480    3.0505 C.ar     1 ZINC000001530625    0.1500
9      O9     -0.4908   -6.8449    3.6377 O.3      1 ZINC000001530625   -0.4900
10     C10     1.5612   -6.8252    2.4392 C.ar     1 ZINC000001530625   -0.1800
11     C11     2.5964   -6.1169    1.8438 C.ar     1 ZINC000001530625    0.1600
12     C12     2.5624   -4.7255    1.8529 C.ar     1 ZINC000001530625   -0.1600
13     O13     3.6546   -6.7335    1.2570 O.3      1 ZINC000001530625   -0.3100
14     C14     3.6016   -8.1435    1.0150 C.3      1 ZINC000001530625    0.1200
15     C15     2.7077   -8.4288   -0.1935 C.3      1 ZINC000001530625   -0.1800
16     C16     5.0113   -8.6782    0.7546 C.3      1 ZINC000001530625   -0.1400
17     C17     3.0173   -8.8069    2.2583 C.3      1 ZINC000001530625   -0.1100
18     H18     3.5948   -8.5099    3.1337 H        1 ZINC000001530625    0.0800
19     C19     2.9876  -10.3296    2.1617 C.3      1 ZINC000001530625   -0.1100
20     C20     2.5476  -10.8747    3.5255 C.3      1 ZINC000001530625   -0.0800
21     C21     1.3980  -10.0936    4.0855 C.2      1 ZINC000001530625   -0.1300
22     C22     0.6917  -10.6644    5.2882 C.3      1 ZINC000001530625   -0.1200
23     C23     0.9613   -8.9610    3.6160 C.2      1 ZINC000001530625   -0.1600
24     C24     1.5720   -8.3227    2.4123 C.3      1 ZINC000001530625   -0.0100
25     H25     1.0099   -8.6419    1.5347 H        1 ZINC000001530625    0.0900
26     H26     1.0039    1.9031    0.0027 H        1 ZINC000001530625    0.0500
27     H27    -0.5459    1.8868   -0.8726 H        1 ZINC000001530625    0.0500
28     H28    -0.5289    1.8773    0.9072 H        1 ZINC000001530625    0.0500
29     H29    -1.0205   -0.3814    0.0098 H        1 ZINC000001530625    0.0600
30     H30     0.5123   -0.3556   -0.8948 H        1 ZINC000001530625    0.0600
31     H31     1.7647   -0.1336    1.2338 H        1 ZINC000001530625    0.0600
32     H32     0.2319   -0.1594    2.1383 H        1 ZINC000001530625    0.0600
33     H33    -0.2598   -2.4180    1.2409 H        1 ZINC000001530625    0.0600
34     H34     1.2730   -2.3923    0.3363 H        1 ZINC000001530625    0.0600
35     H35     2.5254   -2.1703    2.4649 H        1 ZINC000001530625    0.0800
36     H36     0.9926   -2.1961    3.3695 H        1 ZINC000001530625    0.0800
37     H37    -0.3143   -4.2350    3.5425 H        1 ZINC000001530625    0.1300
38     H38    -1.2280   -7.0451    3.0447 H        1 ZINC000001530625    0.3900
39     H39     3.3596   -4.1668    1.3851 H        1 ZINC000001530625    0.1300
40     H40     3.1136   -7.9274   -1.0721 H        1 ZINC000001530625    0.0700
41     H41     2.6712   -9.5033   -0.3728 H        1 ZINC000001530625    0.0800
42     H42     1.7014   -8.0589    0.0035 H        1 ZINC000001530625    0.0600
43     H43     5.6395   -8.4852    1.6242 H        1 ZINC000001530625    0.0700
44     H44     4.9646   -9.7516    0.5711 H        1 ZINC000001530625    0.0800
45     H45     5.4341   -8.1786   -0.1171 H        1 ZINC000001530625    0.0700
46     H46     2.2775  -10.6374    1.3942 H        1 ZINC000001530625    0.0700
47     H47     3.9818  -10.7038    1.9176 H        1 ZINC000001530625    0.0700
48     H48     2.2486  -11.9168    3.4128 H        1 ZINC000001530625    0.0700
49     H49     3.3869  -10.8194    4.2187 H        1 ZINC000001530625    0.0700
50     H50     1.1669  -10.2961    6.1974 H        1 ZINC000001530625    0.0600
51     H51    -0.3541  -10.3576    5.2749 H        1 ZINC000001530625    0.0600
52     H52     0.7516  -11.7525    5.2621 H        1 ZINC000001530625    0.0600
53     H53     0.1348   -8.4711    4.1091 H        1 ZINC000001530625    0.1500
@<TRIPOS>BOND
1     1     2     1
2     1     26    1
3     1     27    1
4     1     28    1
5     2     3     1
6     2     29    1
7     2     30    1
8     3     4     1
9     3     31    1
10    3     32    1
11    4     5     1
12    4     33    1
13    4     34    1
14    5     6     1
15    5     35    1
16    5     36    1
17    6     12    ar
18    6     7     ar
19    7     8     ar
20    7     37    1
21    8     9     1
22    8     10    ar
23    9     38    1
24    10    24    1
25    10    11    ar
26    11    12    ar
27    11    13    1
28    12    39    1
29    13    14    1
30    14    15    1
31    14    16    1
32    14    17    1
33    15    40    1
34    15    41    1
35    15    42    1
36    16    43    1
37    16    44    1
38    16    45    1
39    17    18    1
40    17    24    1
41    17    19    1
42    19    20    1
43    19    46    1
44    19    47    1
45    20    21    1
46    20    48    1
47    20    49    1
48    21    22    1
49    21    23    2
50    22    50    1
51    22    51    1
52    22    52    1
53    23    24    1
54    23    53    1
55    24    25    1
@<TRIPOS>SUBSTRUCTURE
1   ZINC000001530625 1     RESIDUE    1   A     ZIN   1
