@<TRIPOS>MOLECULE
ZINC000084668739
64    68    1     0     0
SMALL
USER_CHARGES
@<TRIPOS>ATOM
1      C1      1.2708    3.5628    0.7768 C.3      1 ZINC000084668739   -0.6500
2      S2      1.2547    1.7643    1.0126 S.o2     1 ZINC000084668739    2.5000
3      O3      2.1993    1.3828    2.0033 O.2      1 ZINC000084668739   -0.9400
4      O4     -0.0800    1.2778    1.0470 O.2      1 ZINC000084668739   -0.9400
5      C5      1.9141    1.1182   -0.4882 C.ar     1 ZINC000084668739   -0.6600
6      C6      1.0706    0.8193   -1.5415 C.ar     1 ZINC000084668739   -0.0400
7      C7      1.5881    0.3123   -2.7190 C.ar     1 ZINC000084668739   -0.1300
8      C8      2.9489    0.1048   -2.8431 C.ar     1 ZINC000084668739   -0.0600
9      C9      3.7928    0.4047   -1.7898 C.ar     1 ZINC000084668739   -0.0800
10     C10     5.2765    0.1780   -1.9250 C.3      1 ZINC000084668739   -0.0800
11     C11     5.9371    1.4418   -2.4793 C.3      1 ZINC000084668739    0.0800
12     H12     5.6832    2.2921   -1.8462 H        1 ZINC000084668739    0.0900
13     N13     5.4568    1.6866   -3.8415 N.am     1 ZINC000084668739   -0.6800
14     C14     5.4727    2.9357   -4.3474 C.2      1 ZINC000084668739    0.5600
15     O15     5.8857    3.8593   -3.6733 O.2      1 ZINC000084668739   -0.5200
16     C16     4.9885    3.1824   -5.7207 C.ar     1 ZINC000084668739   -0.0900
17     C17     3.6452    3.4926   -5.9488 C.ar     1 ZINC000084668739    0.0000
18     Cl18    2.5342    3.5964   -4.6190 Cl       1 ZINC000084668739   -0.0400
19     C19     3.2087    3.7160   -7.2369 C.ar     1 ZINC000084668739   -0.1000
20     C20     4.0883    3.6348   -8.3093 C.ar     1 ZINC000084668739   -0.0700
21     C21     3.5296    3.8658   -9.6915 C.3      1 ZINC000084668739    0.1400
22     N22     4.6287    3.9973  -10.6536 N.am     1 ZINC000084668739   -0.6100
23     C23     4.6258    4.9637  -11.5931 C.2      1 ZINC000084668739    0.5700
24     O24     5.5970    5.1195  -12.3079 O.2      1 ZINC000084668739   -0.5200
25     C25     3.4437    5.8328  -11.7543 C.ar     1 ZINC000084668739   -0.1100
26     C26     3.6105    7.1754  -12.1183 C.ar     1 ZINC000084668739   -0.0800
27     C27     2.5249    7.9866  -12.2693 C.ar     1 ZINC000084668739   -0.0800
28     C28     1.2412    7.4779  -12.0610 C.ar     1 ZINC000084668739   -0.1100
29     C29    -0.1072    8.0482  -12.1325 C.2      1 ZINC000084668739   -0.2200
30     C30    -0.9520    7.0532  -11.8210 C.2      1 ZINC000084668739    0.0200
31     O31    -0.2667    5.9267  -11.5642 O.3      1 ZINC000084668739   -0.1900
32     C32     1.0601    6.1310  -11.6955 C.ar     1 ZINC000084668739    0.0400
33     C33     2.1672    5.3119  -11.5491 C.ar     1 ZINC000084668739   -0.0800
34     C34     5.7355    3.0318  -10.5518 C.3      1 ZINC000084668739    0.1200
35     C35     6.4268    3.2506   -9.2071 C.3      1 ZINC000084668739   -0.1000
36     C36     5.4171    3.3382   -8.0927 C.ar     1 ZINC000084668739   -0.0600
37     C37     5.8693    3.1134   -6.7996 C.ar     1 ZINC000084668739    0.0000
38     Cl38    7.5414    2.7364   -6.5244 Cl       1 ZINC000084668739   -0.0100
39     C39     7.4329    1.2594   -2.4992 C.2      1 ZINC000084668739    0.4900
40     O40     7.9766    0.7892   -3.4841 O.co2    1 ZINC000084668739   -0.6800
41     O41     8.0993    1.5819   -1.5306 O.co2    1 ZINC000084668739   -0.6900
42     C42     3.2760    0.9155   -0.6141 C.ar     1 ZINC000084668739   -0.0200
43     H43     2.2937    3.8976    0.6044 H        1 ZINC000084668739    0.1400
44     H44     0.6538    3.8220   -0.0836 H        1 ZINC000084668739    0.1300
45     H45     0.8745    4.0497    1.6679 H        1 ZINC000084668739    0.1300
46     H46     0.0073    0.9814   -1.4445 H        1 ZINC000084668739    0.1400
47     H47     0.9289    0.0780   -3.5418 H        1 ZINC000084668739    0.1300
48     H48     3.3530   -0.2919   -3.7628 H        1 ZINC000084668739    0.1300
49     H49     5.6991   -0.0540   -0.9474 H        1 ZINC000084668739    0.0900
50     H50     5.4564   -0.6543   -2.6054 H        1 ZINC000084668739    0.0800
51     H51     5.1273    0.9497   -4.3793 H        1 ZINC000084668739    0.3900
52     H52     2.1709    3.9567   -7.4147 H        1 ZINC000084668739    0.1400
53     H53     2.8997    3.0221   -9.9737 H        1 ZINC000084668739    0.0900
54     H54     2.9342    4.7788   -9.6941 H        1 ZINC000084668739    0.1100
55     H55     4.6030    7.5696  -12.2795 H        1 ZINC000084668739    0.1400
56     H56     2.6577    9.0212  -12.5492 H        1 ZINC000084668739    0.1400
57     H57    -0.3685    9.0652  -12.3850 H        1 ZINC000084668739    0.1600
58     H58    -2.0274    7.1448  -11.7823 H        1 ZINC000084668739    0.2100
59     H59     2.0422    4.2750  -11.2740 H        1 ZINC000084668739    0.1400
60     H60     5.3445    2.0157  -10.6045 H        1 ZINC000084668739    0.0800
61     H61     6.4450    3.1972  -11.3625 H        1 ZINC000084668739    0.1100
62     H62     7.1040    2.4190   -9.0127 H        1 ZINC000084668739    0.1000
63     H63     6.9998    4.1771   -9.2452 H        1 ZINC000084668739    0.0900
64     H64     3.9352    1.1498    0.2087 H        1 ZINC000084668739    0.1400
@<TRIPOS>BOND
1     1     2     1
2     1     43    1
3     1     44    1
4     1     45    1
5     2     3     2
6     2     4     2
7     2     5     1
8     5     42    ar
9     5     6     ar
10    6     7     ar
11    6     46    1
12    7     8     ar
13    7     47    1
14    8     9     ar
15    8     48    1
16    9     10    1
17    9     42    ar
18    10    11    1
19    10    49    1
20    10    50    1
21    11    12    1
22    11    13    1
23    11    39    1
24    13    14    am
25    13    51    1
26    14    15    2
27    14    16    1
28    16    37    ar
29    16    17    ar
30    17    18    1
31    17    19    ar
32    19    20    ar
33    19    52    1
34    20    36    ar
35    20    21    1
36    21    22    1
37    21    53    1
38    21    54    1
39    22    23    am
40    22    34    1
41    23    24    2
42    23    25    1
43    25    33    ar
44    25    26    ar
45    26    27    ar
46    26    55    1
47    27    28    ar
48    27    56    1
49    28    32    ar
50    28    29    1
51    29    30    2
52    29    57    1
53    30    31    1
54    30    58    1
55    31    32    1
56    32    33    ar
57    33    59    1
58    34    35    1
59    34    60    1
60    34    61    1
61    35    36    1
62    35    62    1
63    35    63    1
64    36    37    ar
65    37    38    1
66    39    40    ar
67    39    41    ar
68    42    64    1
@<TRIPOS>SUBSTRUCTURE
1   ZINC000084668739 1     RESIDUE    1   A     ZIN   1
