@<TRIPOS>MOLECULE
ZINC000000968328
45    47    1     0     0
SMALL
USER_CHARGES
@<TRIPOS>ATOM
1      C1     -0.0178    1.4608    0.0101 C.3      1 ZINC000000968328    0.0600
2      N2      0.0021   -0.0041    0.0020 N.pl3    1 ZINC000000968328   -0.5900
3      C3      0.0241   -0.7433    1.2666 C.3      1 ZINC000000968328    0.1100
4      C4     -1.4105   -1.0203    1.7205 C.3      1 ZINC000000968328    0.0300
5      O5     -2.0465   -1.8923    0.7840 O.3      1 ZINC000000968328   -0.3200
6      C6     -3.3348   -2.2400    1.0412 C.ar     1 ZINC000000968328    0.1300
7      C7     -3.9756   -1.7474    2.1688 C.ar     1 ZINC000000968328   -0.2000
8      C8     -5.2854   -2.1021    2.4278 C.ar     1 ZINC000000968328   -0.0600
9      C9     -5.9575   -2.9475    1.5646 C.ar     1 ZINC000000968328   -0.1200
10     C10    -7.3862   -3.3331    1.8499 C.3      1 ZINC000000968328   -0.0600
11     C11    -8.3282   -2.3252    1.1885 C.3      1 ZINC000000968328   -0.1000
12     H12    -8.1081   -2.2345    0.1248 H        1 ZINC000000968328    0.1600
13     S13    -8.2158   -0.7006    2.0115 S.3      1 ZINC000000968328   -0.1100
14     C14    -9.9146   -0.6919    2.5184 C.2      1 ZINC000000968328    0.5400
15     O15   -10.4712    0.1877    3.1466 O.2      1 ZINC000000968328   -0.4200
16     N16   -10.4722   -1.8248    2.0862 N.am     1 ZINC000000968328   -0.6800
17     C17    -9.7725   -2.7215    1.4041 C.2      1 ZINC000000968328    0.5400
18     O18   -10.2462   -3.7602    0.9962 O.2      1 ZINC000000968328   -0.4500
19     C19    -5.3213   -3.4395    0.4399 C.ar     1 ZINC000000968328   -0.0700
20     C20    -4.0133   -3.0837    0.1736 C.ar     1 ZINC000000968328   -0.1500
21     C21     0.0000   -0.6926   -1.2056 C.ar     1 ZINC000000968328    0.4400
22     C22     0.0131   -2.0834   -1.2060 C.ar     1 ZINC000000968328   -0.1800
23     C23     0.0105   -2.7559   -2.4150 C.ar     1 ZINC000000968328    0.0300
24     C24    -0.0054   -2.0118   -3.5870 C.ar     1 ZINC000000968328   -0.1700
25     C25    -0.0178   -0.6332   -3.5127 C.ar     1 ZINC000000968328    0.1400
26     N26    -0.0200   -0.0185   -2.3452 N.ar     1 ZINC000000968328   -0.5000
27     H27    -0.0291    0.9512   -2.3212 H        1 ZINC000000968328    0.4400
28     H28     1.0048    1.8381    0.0023 H        1 ZINC000000968328    0.0900
29     H29    -0.5450    1.8219   -0.8730 H        1 ZINC000000968328    0.0700
30     H30    -0.5280    1.8123    0.9069 H        1 ZINC000000968328    0.1100
31     H31     0.5496   -1.6879    1.1262 H        1 ZINC000000968328    0.1100
32     H32     0.5371   -0.1514    2.0246 H        1 ZINC000000968328    0.1300
33     H33    -1.3961   -1.4911    2.7035 H        1 ZINC000000968328    0.0900
34     H34    -1.9619   -0.0816    1.7754 H        1 ZINC000000968328    0.0700
35     H35    -3.4507   -1.0876    2.8437 H        1 ZINC000000968328    0.1300
36     H36    -5.7846   -1.7188    3.3055 H        1 ZINC000000968328    0.1300
37     H37    -7.5805   -4.3285    1.4504 H        1 ZINC000000968328    0.1100
38     H38    -7.5539   -3.3347    2.9269 H        1 ZINC000000968328    0.0900
39     H39   -11.4085   -1.9958    2.2734 H        1 ZINC000000968328    0.4300
40     H40    -5.8486   -4.0994   -0.2330 H        1 ZINC000000968328    0.1400
41     H41    -3.5167   -3.4682   -0.7050 H        1 ZINC000000968328    0.1300
42     H42     0.0256   -2.6310   -0.2752 H        1 ZINC000000968328    0.1800
43     H43     0.0208   -3.8354   -2.4464 H        1 ZINC000000968328    0.1700
44     H44    -0.0075   -2.5064   -4.5471 H        1 ZINC000000968328    0.1800
45     H45    -0.0301   -0.0505   -4.4219 H        1 ZINC000000968328    0.2100
@<TRIPOS>BOND
1     1     2     1
2     1     28    1
3     1     29    1
4     1     30    1
5     2     3     1
6     2     21    1
7     3     4     1
8     3     31    1
9     3     32    1
10    4     5     1
11    4     33    1
12    4     34    1
13    5     6     1
14    6     20    ar
15    6     7     ar
16    7     8     ar
17    7     35    1
18    8     9     ar
19    8     36    1
20    9     10    1
21    9     19    ar
22    10    11    1
23    10    37    1
24    10    38    1
25    11    12    1
26    11    17    1
27    11    13    1
28    13    14    1
29    14    15    2
30    14    16    am
31    16    17    am
32    16    39    1
33    17    18    2
34    19    20    ar
35    19    40    1
36    20    41    1
37    21    26    ar
38    21    22    ar
39    22    23    ar
40    22    42    1
41    23    24    ar
42    23    43    1
43    24    25    ar
44    24    44    1
45    25    26    ar
46    25    45    1
47    26    27    1
@<TRIPOS>SUBSTRUCTURE
1   ZINC000000968328 1     RESIDUE    1   A     ZIN   1
