@<TRIPOS>MOLECULE
ZINC000095616937
62   65    0    0    0
SMALL
USER_CHARGES
NO_NAME
@<TRIPOS>ATOM
1 C1       -0.2355     2.1247    -0.8814 C.3    1 <0>       0.0300
2 O2        0.2492     0.9258    -0.2733 O.3    1 <0>      -0.3200
3 C3        0.6654    -0.0639    -1.1065 C.ar   1 <0>       0.1400
4 C4       -0.2650    -0.7677    -1.8773 C.ar   1 <0>      -0.0700
5 C5       -1.7076    -0.4362    -1.7886 C.ar   1 <0>      -0.0400
6 C6       -2.3234    -0.3393    -0.5304 C.ar   1 <0>      -0.0900
7 C7       -3.6431    -0.0370    -0.4224 C.ar   1 <0>      -0.1000
8 C8       -4.4109     0.1841    -1.5802 C.ar   1 <0>      -0.0400
9 C9       -5.7766     0.4984    -1.4926 C.ar   1 <0>      -0.1000
10 C10      -6.5007     0.7095    -2.6455 C.ar   1 <0>       0.1300
11 N11      -7.8586     1.0222    -2.5608 N.am   1 <0>      -1.0700
12 S12      -8.3774     2.5580    -2.8992 S.o2   1 <0>       2.6100
13 C13      -7.6763     3.5879    -1.5807 C.3    1 <0>      -0.6700
14 O14      -7.7730     2.8788    -4.1446 O.2    1 <0>      -0.9500
15 O15      -9.7917     2.4988    -2.7743 O.2    1 <0>      -0.9500
16 C16      -5.8887     0.6143    -3.9015 C.ar   1 <0>      -0.1100
17 C17      -4.5688     0.3111    -4.0133 C.ar   1 <0>      -0.0900
18 C18      -3.7993     0.0893    -2.8564 C.ar   1 <0>      -0.0500
19 C19      -2.4335    -0.2194    -2.9454 C.ar   1 <0>      -0.0900
20 C20       0.1681    -1.7808    -2.7291 C.ar   1 <0>      -0.0700
21 C21       1.5178    -2.0859    -2.8081 C.ar   1 <0>       0.1100
22 N22       1.9560    -3.1052    -3.6655 N.am   1 <0>      -0.4900
23 C23       2.4581    -4.2655    -3.1389 C.2    1 <0>       0.1700
24 C24       2.8795    -5.2470    -3.9652 C.2    1 <0>      -0.2900
25 C25       2.7925    -5.0538    -5.3648 C.2    1 <0>       0.5500
26 O26       3.1660    -5.9248    -6.1298 O.2    1 <0>      -0.5100
27 N27       2.2920    -3.8969    -5.8435 N.am   1 <0>      -0.6600
28 C28       1.8742    -2.9368    -4.9978 C.2    1 <0>       0.7000
29 O29       1.4251    -1.8988    -5.4442 O.2    1 <0>      -0.5200
30 C30       2.4374    -1.3827    -2.0394 C.ar   1 <0>      -0.0900
31 C31       2.0131    -0.3733    -1.1976 C.ar   1 <0>      -0.0700
32 C32       3.0164     0.3850    -0.3674 C.3    1 <0>      -0.0200
33 C33       4.4123    -0.1984    -0.5957 C.3    1 <0>      -0.1500
34 C34       3.0067     1.8593    -0.7766 C.3    1 <0>      -0.1500
35 C35       2.6490     0.2642     1.1129 C.3    1 <0>      -0.1400
36 H36       0.5093     2.5040    -1.5810 H      1 <0>       0.0500
37 H37      -1.1613     1.9122    -1.4161 H      1 <0>       0.0500
38 H38      -0.4243     2.8722    -0.1109 H      1 <0>       0.1000
39 H39      -1.7403    -0.5078     0.3629 H      1 <0>       0.1300
40 H40      -4.1031     0.0333     0.5523 H      1 <0>       0.1300
41 H41      -6.2563     0.5738    -0.5279 H      1 <0>       0.1400
42 H42      -8.4983     0.3398    -2.3038 H      1 <0>       0.4300
43 H43      -6.5891     3.5878    -1.6589 H      1 <0>       0.1300
44 H44      -8.0476     4.6079    -1.6801 H      1 <0>       0.1300
45 H45      -7.9709     3.1869    -0.6109 H      1 <0>       0.1300
46 H46      -6.4737     0.7838    -4.7934 H      1 <0>       0.1400
47 H47      -4.1109     0.2405    -4.9889 H      1 <0>       0.1400
48 H48      -1.9535    -0.2905    -3.9102 H      1 <0>       0.1300
49 H49      -0.5462    -2.3278    -3.3265 H      1 <0>       0.1300
50 H50       2.5170    -4.3947    -2.0683 H      1 <0>       0.1800
51 H51       3.2780    -6.1670    -3.5635 H      1 <0>       0.1800
52 H52       2.2293    -3.7575    -6.8014 H      1 <0>       0.4300
53 H53       3.4883    -1.6234    -2.1038 H      1 <0>       0.1400
54 H54       4.6740    -0.1123    -1.6503 H      1 <0>       0.0600
55 H55       5.1380     0.3501     0.0048 H      1 <0>       0.0600
56 H56       4.4192    -1.2487    -0.3042 H      1 <0>       0.0600
57 H57       2.1062     2.3374    -0.3912 H      1 <0>       0.0700
58 H58       3.8859     2.3560    -0.3662 H      1 <0>       0.0600
59 H59       3.0212     1.9346    -1.8639 H      1 <0>       0.0500
60 H60       2.6559    -0.7861     1.4044 H      1 <0>       0.0500
61 H61       3.3747     0.8127     1.7134 H      1 <0>       0.0600
62 H62       1.6546     0.6798     1.2755 H      1 <0>       0.0800
@<TRIPOS>BOND
1    1    2 1
2    1   36 1
3    1   37 1
4    1   38 1
5    2    3 1
6    3   31 ar
7    3    4 ar
8    4    5 1
9    4   20 ar
10    5   19 ar
11    5    6 ar
12    6    7 ar
13    6   39 1
14    7    8 ar
15    7   40 1
16    8   18 ar
17    8    9 ar
18    9   10 ar
19    9   41 1
20   10   11 1
21   10   16 ar
22   11   12 am
23   11   42 1
24   12   13 1
25   12   14 2
26   12   15 2
27   13   43 1
28   13   44 1
29   13   45 1
30   16   17 ar
31   16   46 1
32   17   18 ar
33   17   47 1
34   18   19 ar
35   19   48 1
36   20   21 ar
37   20   49 1
38   21   22 1
39   21   30 ar
40   22   28 am
41   22   23 1
42   23   24 2
43   23   50 1
44   24   25 1
45   24   51 1
46   25   26 2
47   25   27 am
48   27   28 am
49   27   52 1
50   28   29 2
51   30   31 ar
52   30   53 1
53   31   32 1
54   32   33 1
55   32   34 1
56   32   35 1
57   33   54 1
58   33   55 1
59   33   56 1
60   34   57 1
61   34   58 1
62   34   59 1
63   35   60 1
64   35   61 1
65   35   62 1
