@<TRIPOS>MOLECULE
ZINC000003794794
62    64    1     0     0
SMALL
USER_CHARGES
@<TRIPOS>ATOM
1      O1      0.0021   -0.0041    0.0020 O.2      1 ZINC000003794794   -0.4400
2      C2     -0.0144    1.2126    0.0087 C.2      1 ZINC000003794794    0.4600
3      C3     -1.2892    1.9609    0.0311 C.ar     1 ZINC000003794794   -0.1500
4      C4     -2.4679    1.4009   -0.4548 C.ar     1 ZINC000003794794    0.1600
5      O5     -2.4669    0.1436   -0.9640 O.3      1 ZINC000003794794   -0.4800
6      C6     -3.6498    2.1405   -0.4145 C.ar     1 ZINC000003794794   -0.1000
7      C7     -3.6601    3.4176    0.1008 C.ar     1 ZINC000003794794   -0.1000
8      C8     -2.4892    3.9948    0.5917 C.ar     1 ZINC000003794794    0.1600
9      O9     -2.5089    5.2531    1.0980 O.3      1 ZINC000003794794   -0.4800
10     C10    -1.2996    3.2716    0.5589 C.ar     1 ZINC000003794794   -0.1500
11     C11    -0.0353    3.8441    1.0679 C.2      1 ZINC000003794794    0.4600
12     O12    -0.0356    4.7269    1.9053 O.2      1 ZINC000003794794   -0.4400
13     C13     1.2278    3.3062    0.5246 C.ar     1 ZINC000003794794   -0.1500
14     C14     2.3995    4.0621    0.5244 C.ar     1 ZINC000003794794    0.2200
15     N15     2.3997    5.3494    1.0419 N.pl3    1 ZINC000003794794   -0.7300
16     C16     3.6332    6.1397    1.0395 C.3      1 ZINC000003794794    0.1000
17     C17     3.3616    7.5109    1.6613 C.3      1 ZINC000003794794   -0.0200
18     N18     4.5986    8.3034    1.6589 N.4      1 ZINC000003794794   -0.5000
19     H19     5.3058    7.8246    2.1961 H        1 ZINC000003794794    0.4300
20     H20     4.9200    8.4222    0.7099 H        1 ZINC000003794794    0.4400
21     C21     4.3378    9.6200    2.2559 C.3      1 ZINC000003794794    0.0000
22     C22     5.6261   10.4454    2.2534 C.3      1 ZINC000003794794    0.0400
23     O23     6.0180   10.7125    0.9054 O.3      1 ZINC000003794794   -0.5800
24     C24     3.5748    3.5145   -0.0003 C.ar     1 ZINC000003794794   -0.1200
25     C25     3.5846    2.2402   -0.5153 C.ar     1 ZINC000003794794   -0.1200
26     C26     2.4194    1.4663   -0.5237 C.ar     1 ZINC000003794794    0.2200
27     N27     2.4391    0.1808   -1.0453 N.pl3    1 ZINC000003794794   -0.7300
28     C28     3.6828   -0.3699   -1.5895 C.3      1 ZINC000003794794    0.1000
29     C29     3.4323   -1.7918   -2.0957 C.3      1 ZINC000003794794   -0.0200
30     N30     4.6794   -2.3441   -2.6414 N.4      1 ZINC000003794794   -0.5000
31     H31     4.9973   -1.7663   -3.4051 H        1 ZINC000003794794    0.4300
32     H32     5.3832   -2.3635   -1.9187 H        1 ZINC000003794794    0.4400
33     C33     4.4389   -3.7093   -3.1275 C.3      1 ZINC000003794794    0.0000
34     C34     5.7378   -4.2845   -3.6958 C.3      1 ZINC000003794794    0.0400
35     O35     6.6979   -4.4206   -2.6462 O.3      1 ZINC000003794794   -0.5800
36     C36     1.2381    1.9943    0.0009 C.ar     1 ZINC000003794794   -0.1500
37     H37    -2.6429   -0.5459   -0.3093 H        1 ZINC000003794794    0.4100
38     H38    -4.5649    1.7079   -0.7909 H        1 ZINC000003794794    0.1500
39     H39    -4.5835    3.9772    0.1253 H        1 ZINC000003794794    0.1500
40     H40    -2.6905    5.2924    2.0470 H        1 ZINC000003794794    0.4100
41     H41     1.5830    5.7261    1.4053 H        1 ZINC000003794794    0.4200
42     H42     4.3973    5.6224    1.6198 H        1 ZINC000003794794    0.0800
43     H43     3.9805    6.2680    0.0143 H        1 ZINC000003794794    0.0800
44     H44     2.5976    8.0282    1.0809 H        1 ZINC000003794794    0.1400
45     H45     3.0144    7.3826    2.6865 H        1 ZINC000003794794    0.1400
46     H46     3.5738   10.1372    1.6756 H        1 ZINC000003794794    0.1400
47     H47     3.9905    9.4917    3.2811 H        1 ZINC000003794794    0.1500
48     H48     5.4555   11.3868    2.7755 H        1 ZINC000003794794    0.1000
49     H49     6.4156    9.8881    2.7577 H        1 ZINC000003794794    0.0700
50     H50     6.8292   11.2330    0.8274 H        1 ZINC000003794794    0.4100
51     H51     4.4832    4.0987   -0.0012 H        1 ZINC000003794794    0.1400
52     H52     4.5003    1.8327   -0.9175 H        1 ZINC000003794794    0.1400
53     H53     1.6294   -0.3532   -1.0496 H        1 ZINC000003794794    0.4200
54     H54     4.0262    0.2543   -2.4144 H        1 ZINC000003794794    0.0800
55     H55     4.4431   -0.3909   -0.8087 H        1 ZINC000003794794    0.0900
56     H56     3.0889   -2.4160   -1.2708 H        1 ZINC000003794794    0.1400
57     H57     2.6720   -1.7709   -2.8765 H        1 ZINC000003794794    0.1400
58     H58     4.0955   -4.3335   -2.3025 H        1 ZINC000003794794    0.1400
59     H59     3.6786   -3.6884   -3.9082 H        1 ZINC000003794794    0.1500
60     H60     5.5402   -5.2617   -4.1364 H        1 ZINC000003794794    0.1000
61     H61     6.1283   -3.6133   -4.4607 H        1 ZINC000003794794    0.0700
62     H62     7.5478   -4.7805   -2.9348 H        1 ZINC000003794794    0.4100
@<TRIPOS>BOND
1     1     2     2
2     2     36    1
3     2     3     1
4     3     10    ar
5     3     4     ar
6     4     5     1
7     4     6     ar
8     5     37    1
9     6     7     ar
10    6     38    1
11    7     8     ar
12    7     39    1
13    8     9     1
14    8     10    ar
15    9     40    1
16    10    11    1
17    11    12    2
18    11    13    1
19    13    36    ar
20    13    14    ar
21    14    15    1
22    14    24    ar
23    15    16    1
24    15    41    1
25    16    17    1
26    16    42    1
27    16    43    1
28    17    18    1
29    17    44    1
30    17    45    1
31    18    19    1
32    18    20    1
33    18    21    1
34    21    22    1
35    21    46    1
36    21    47    1
37    22    23    1
38    22    48    1
39    22    49    1
40    23    50    1
41    24    25    ar
42    24    51    1
43    25    26    ar
44    25    52    1
45    26    27    1
46    26    36    ar
47    27    28    1
48    27    53    1
49    28    29    1
50    28    54    1
51    28    55    1
52    29    30    1
53    29    56    1
54    29    57    1
55    30    31    1
56    30    32    1
57    30    33    1
58    33    34    1
59    33    58    1
60    33    59    1
61    34    35    1
62    34    60    1
63    34    61    1
64    35    62    1
@<TRIPOS>SUBSTRUCTURE
1   ZINC000003794794 1     RESIDUE    1   A     ZIN   1
