@<TRIPOS>MOLECULE
ZINC000000020231
25    26    1     0     0
SMALL
USER_CHARGES
@<TRIPOS>ATOM
1      N1      0.0435    1.3922    0.1742 N.pl3    1 ZINC000000020231   -0.8700
2      C2      0.0469   -0.0062    0.1249 C.ar     1 ZINC000000020231    0.2500
3      C3     -0.3333   -0.6608   -1.0394 C.ar     1 ZINC000000020231   -0.1900
4      C4     -0.3297   -2.0418   -1.0884 C.ar     1 ZINC000000020231    0.0400
5      Cl5    -0.8044   -2.8600   -2.5441 Cl       1 ZINC000000020231   -0.0500
6      C6      0.0544   -2.7753    0.0270 C.ar     1 ZINC000000020231    0.1200
7      N7      0.0586   -4.1772   -0.0228 N.pl3    1 ZINC000000020231   -0.6700
8      C8      1.1855   -4.8473   -0.4397 C.2      1 ZINC000000020231    0.6000
9      N9      2.2898   -4.2447   -0.7400 N.2      1 ZINC000000020231   -0.6200
10     C10     3.3053   -5.2255   -1.1476 C.3      1 ZINC000000020231    0.0400
11     C11     2.5816   -6.5819   -1.0331 C.3      1 ZINC000000020231    0.0900
12     N12     1.2357   -6.2087   -0.5666 N.pl3    1 ZINC000000020231   -0.7700
13     C13     0.4347   -2.1204    1.1914 C.ar     1 ZINC000000020231    0.0400
14     Cl14    0.9147   -3.0368    2.5855 Cl       1 ZINC000000020231   -0.0500
15     C15     0.4359   -0.7392    1.2384 C.ar     1 ZINC000000020231   -0.1900
16     H16     0.3129    1.8495    0.9861 H        1 ZINC000000020231    0.4000
17     H17    -0.2244    1.9043   -0.6048 H        1 ZINC000000020231    0.4000
18     H18    -0.6322   -0.0904   -1.9064 H        1 ZINC000000020231    0.1400
19     H19    -0.7329   -4.6741    0.2368 H        1 ZINC000000020231    0.4100
20     H20     3.6193   -5.0456   -2.1758 H        1 ZINC000000020231    0.0800
21     H21     4.1616   -5.1913   -0.4740 H        1 ZINC000000020231    0.0800
22     H22     2.5326   -7.0748   -2.0040 H        1 ZINC000000020231    0.0700
23     H23     3.0754   -7.2207   -0.3008 H        1 ZINC000000020231    0.0700
24     H24     0.5072   -6.8229   -0.3853 H        1 ZINC000000020231    0.4100
25     H25     0.7316   -0.2300    2.1437 H        1 ZINC000000020231    0.1400
@<TRIPOS>BOND
1     1     2     1
2     1     16    1
3     1     17    1
4     2     15    ar
5     2     3     ar
6     3     4     ar
7     3     18    1
8     4     5     1
9     4     6     ar
10    6     7     1
11    6     13    ar
12    7     8     1
13    7     19    1
14    8     12    1
15    8     9     2
16    9     10    1
17    10    11    1
18    10    20    1
19    10    21    1
20    11    12    1
21    11    22    1
22    11    23    1
23    12    24    1
24    13    14    1
25    13    15    ar
26    15    25    1
@<TRIPOS>SUBSTRUCTURE
1   ZINC000000020231 1     RESIDUE    1   A     ZIN   1
