@<TRIPOS>MOLECULE
ZINC000013545636
33    33    1     0     0
SMALL
USER_CHARGES
@<TRIPOS>ATOM
1      C1     -0.0187    1.5258    0.0104 C.3      1 ZINC000013545636   -0.1500
2      C2      0.0021   -0.0041    0.0020 C.3      1 ZINC000013545636   -0.1200
3      C3      0.7182   -0.4975   -1.2568 C.3      1 ZINC000013545636   -0.1200
4      C4      0.7390   -2.0273   -1.2652 C.3      1 ZINC000013545636   -0.0600
5      H5     -0.2789   -2.4050   -1.1679 H        1 ZINC000013545636    0.0900
6      C6      1.5844   -2.5324   -0.0943 C.3      1 ZINC000013545636   -0.1600
7      C7      1.3429   -2.5219   -2.5810 C.3      1 ZINC000013545636   -0.1500
8      C8      1.4220   -4.0487   -2.5206 C.3      1 ZINC000013545636   -0.1000
9      C9      2.0229   -4.5803   -3.8234 C.3      1 ZINC000013545636   -0.1600
10     C10     0.3964   -2.1466   -3.7055 C.2      1 ZINC000013545636    0.5300
11     O11    -0.7537   -2.5300   -3.7135 O.2      1 ZINC000013545636   -0.5500
12     N12     0.8821   -1.3694   -4.6966 N.pl3    1 ZINC000013545636   -0.7200
13     C13     2.1484   -0.9377   -4.7024 C.2      1 ZINC000013545636    0.6700
14     O14     2.5019   -0.2419   -5.6334 O.2      1 ZINC000013545636   -0.6000
15     N15     3.0538   -1.2160   -3.7575 N.am     1 ZINC000013545636   -0.7000
16     C16     2.7560   -1.9799   -2.6851 C.2      1 ZINC000013545636    0.5500
17     O17     3.5870   -2.2240   -1.8368 O.2      1 ZINC000013545636   -0.5300
18     H18     1.0039    1.9031    0.0027 H        1 ZINC000013545636    0.0500
19     H19    -0.5459    1.8868   -0.8726 H        1 ZINC000013545636    0.0500
20     H20    -0.5289    1.8773    0.9072 H        1 ZINC000013545636    0.0500
21     H21     0.5293   -0.3651    0.8851 H        1 ZINC000013545636    0.0600
22     H22    -1.0205   -0.3814    0.0098 H        1 ZINC000013545636    0.0600
23     H23     0.1910   -0.1364   -2.1398 H        1 ZINC000013545636    0.0700
24     H24     1.7408   -0.1202   -1.2645 H        1 ZINC000013545636    0.0600
25     H25     1.1541   -2.1800    0.8431 H        1 ZINC000013545636    0.0500
26     H26     1.5992   -3.6222   -0.1003 H        1 ZINC000013545636    0.0500
27     H27     2.6023   -2.1546   -0.1915 H        1 ZINC000013545636    0.0800
28     H28     2.0512   -4.3470   -1.6820 H        1 ZINC000013545636    0.0700
29     H29     0.4211   -4.4594   -2.3880 H        1 ZINC000013545636    0.0800
30     H30     2.0792   -5.6680   -3.7803 H        1 ZINC000013545636    0.0600
31     H31     1.3937   -4.2820   -4.6620 H        1 ZINC000013545636    0.0600
32     H32     3.0238   -4.1696   -3.9560 H        1 ZINC000013545636    0.0500
33     H33     3.9511   -0.8584   -3.8458 H        1 ZINC000013545636    0.3900
@<TRIPOS>BOND
1     1     2     1
2     1     18    1
3     1     19    1
4     1     20    1
5     2     3     1
6     2     21    1
7     2     22    1
8     3     4     1
9     3     23    1
10    3     24    1
11    4     5     1
12    4     6     1
13    4     7     1
14    6     25    1
15    6     26    1
16    6     27    1
17    7     16    1
18    7     8     1
19    7     10    1
20    8     9     1
21    8     28    1
22    8     29    1
23    9     30    1
24    9     31    1
25    9     32    1
26    10    11    2
27    10    12    1
28    12    13    1
29    13    14    2
30    13    15    am
31    15    16    am
32    15    33    1
33    16    17    2
@<TRIPOS>SUBSTRUCTURE
1   ZINC000013545636 1     RESIDUE    1   A     ZIN   1
