@<TRIPOS>MOLECULE
ZINC000003944422
98    101   1     0     0
SMALL
USER_CHARGES
@<TRIPOS>ATOM
1      C1      1.1173   -0.3494   -0.5857 C.3      1 ZINC000003944422   -0.1500
2      C2      0.7346   -1.8284   -0.5022 C.3      1 ZINC000003944422   -0.0200
3      C3      1.3763   -2.4519    0.7390 C.3      1 ZINC000003944422   -0.1500
4      C4     -0.7642   -1.9551   -0.4101 C.2      1 ZINC000003944422    0.0500
5      N5     -1.5054   -2.5861   -1.2570 N.2      1 ZINC000003944422   -0.4600
6      C6     -2.8028   -2.6005   -1.0263 C.2      1 ZINC000003944422    0.0400
7      C7     -3.7842   -3.2992   -1.9316 C.3      1 ZINC000003944422    0.2100
8      N8     -4.1552   -2.4057   -3.0318 N.am     1 ZINC000003944422   -0.6200
9      C9     -3.3791   -2.4123   -4.2743 C.3      1 ZINC000003944422    0.0800
10     C10    -5.2105   -1.5777   -2.9007 C.2      1 ZINC000003944422    0.7100
11     O11    -5.8546   -1.5722   -1.8695 O.2      1 ZINC000003944422   -0.5800
12     N12    -5.5519   -0.7557   -3.9128 N.am     1 ZINC000003944422   -0.7300
13     C13    -6.6990    0.1444   -3.7704 C.3      1 ZINC000003944422    0.1600
14     H14    -7.4722   -0.3436   -3.1770 H        1 ZINC000003944422    0.1000
15     C15    -7.2477    0.4783   -5.1336 C.2      1 ZINC000003944422    0.5200
16     O16    -6.5112    0.4922   -6.0971 O.2      1 ZINC000003944422   -0.5200
17     N17    -8.5570    0.7615   -5.2821 N.am     1 ZINC000003944422   -0.7100
18     C18    -9.1151    0.9651   -6.6213 C.3      1 ZINC000003944422    0.1600
19     H19    -8.3858    1.4835   -7.2438 H        1 ZINC000003944422    0.0900
20     C20    -9.4475   -0.3909   -7.2469 C.3      1 ZINC000003944422   -0.1000
21     C21    -8.1760   -1.1714   -7.4594 C.ar     1 ZINC000003944422   -0.0700
22     C22    -7.4795   -1.0480   -8.6471 C.ar     1 ZINC000003944422   -0.1100
23     C23    -6.3132   -1.7639   -8.8420 C.ar     1 ZINC000003944422   -0.1100
24     C24    -5.8430   -2.6028   -7.8490 C.ar     1 ZINC000003944422   -0.1200
25     C25    -6.5389   -2.7255   -6.6609 C.ar     1 ZINC000003944422   -0.1100
26     C26    -7.7030   -2.0063   -6.4644 C.ar     1 ZINC000003944422   -0.1100
27     C27   -10.3891    1.8063   -6.5203 C.3      1 ZINC000003944422   -0.1600
28     C28   -10.0321    3.2186   -6.0525 C.3      1 ZINC000003944422    0.1000
29     H29    -9.2711    3.6378   -6.7106 H        1 ZINC000003944422    0.1200
30     O30    -9.5289    3.1647   -4.7161 O.3      1 ZINC000003944422   -0.5400
31     C31   -11.2821    4.1000   -6.0917 C.3      1 ZINC000003944422    0.1400
32     H32   -11.6659    4.1411   -7.1110 H        1 ZINC000003944422    0.1000
33     C33   -10.9250    5.5123   -5.6238 C.3      1 ZINC000003944422   -0.0900
34     C34   -12.1248    6.4110   -5.7783 C.ar     1 ZINC000003944422   -0.0700
35     C35   -12.3264    7.0976   -6.9611 C.ar     1 ZINC000003944422   -0.1100
36     C36   -13.4269    7.9219   -7.1029 C.ar     1 ZINC000003944422   -0.1100
37     C37   -14.3262    8.0594   -6.0621 C.ar     1 ZINC000003944422   -0.1200
38     C38   -14.1251    7.3722   -4.8796 C.ar     1 ZINC000003944422   -0.1200
39     C39   -13.0269    6.5445   -4.7394 C.ar     1 ZINC000003944422   -0.1100
40     N40   -12.3049    3.5365   -5.2071 N.am     1 ZINC000003944422   -0.7100
41     C41   -13.6078    3.8002   -5.4296 C.2      1 ZINC000003944422    0.6500
42     O42   -13.9340    4.5052   -6.3639 O.2      1 ZINC000003944422   -0.5400
43     O43   -14.5478    3.2823   -4.6167 O.3      1 ZINC000003944422   -0.3700
44     C44   -15.9306    3.6083   -4.9163 C.3      1 ZINC000003944422    0.1700
45     C45   -16.8329    2.9451   -3.9077 C.2      1 ZINC000003944422   -0.2400
46     C46   -17.2398    3.4735   -2.7496 C.2      1 ZINC000003944422    0.0700
47     N47   -18.0285    2.6921   -2.0396 N.2      1 ZINC000003944422   -0.4700
48     C48   -18.3095    1.5340   -2.5343 C.2      1 ZINC000003944422    0.0300
49     S49   -17.5439    1.3393   -4.0507 S.3      1 ZINC000003944422    0.1500
50     C50    -6.2545    1.4303   -3.0706 C.3      1 ZINC000003944422   -0.1000
51     C51    -7.4704    2.3278   -2.8325 C.3      1 ZINC000003944422   -0.1700
52     C52    -5.6065    1.0828   -1.7288 C.3      1 ZINC000003944422   -0.1300
53     C53    -3.1768   -1.9450    0.0767 C.2      1 ZINC000003944422   -0.2300
54     S54    -1.7279   -1.2897    0.8356 S.3      1 ZINC000003944422    0.1200
55     H55     2.2014   -0.2577   -0.6523 H        1 ZINC000003944422    0.0700
56     H56     0.6601    0.0948   -1.4699 H        1 ZINC000003944422    0.0600
57     H57     0.7629    0.1685    0.3055 H        1 ZINC000003944422    0.0600
58     H58     1.0890   -2.3463   -1.3934 H        1 ZINC000003944422    0.1000
59     H59     1.0220   -1.9340    1.6302 H        1 ZINC000003944422    0.0600
60     H60     1.1038   -3.5055    0.7985 H        1 ZINC000003944422    0.0600
61     H61     2.4604   -2.3602    0.6724 H        1 ZINC000003944422    0.0700
62     H62    -3.3265   -4.2022   -2.3356 H        1 ZINC000003944422    0.0900
63     H63    -4.6756   -3.5662   -1.3641 H        1 ZINC000003944422    0.1000
64     H64    -3.8045   -3.1409   -4.9645 H        1 ZINC000003944422    0.0600
65     H65    -3.4102   -1.4214   -4.7274 H        1 ZINC000003944422    0.0600
66     H66    -2.3453   -2.6795   -4.0556 H        1 ZINC000003944422    0.0800
67     H67    -5.0380   -0.7601   -4.7355 H        1 ZINC000003944422    0.4100
68     H68    -9.1298    0.8304   -4.5024 H        1 ZINC000003944422    0.4000
69     H69   -10.1077   -0.9464   -6.5808 H        1 ZINC000003944422    0.0700
70     H70    -9.9438   -0.2371   -8.2051 H        1 ZINC000003944422    0.0800
71     H71    -7.8469   -0.3926   -9.4229 H        1 ZINC000003944422    0.1100
72     H72    -5.7694   -1.6680   -9.7702 H        1 ZINC000003944422    0.1200
73     H73    -4.9321   -3.1626   -8.0015 H        1 ZINC000003944422    0.1100
74     H74    -6.1718   -3.3812   -5.8852 H        1 ZINC000003944422    0.1100
75     H75    -8.2468   -2.1022   -5.5361 H        1 ZINC000003944422    0.1100
76     H76   -10.8689    1.8577   -7.4977 H        1 ZINC000003944422    0.0900
77     H77   -11.0714    1.3479   -5.8044 H        1 ZINC000003944422    0.0800
78     H78   -10.1322    2.7486   -4.0852 H        1 ZINC000003944422    0.3700
79     H79   -10.6255    5.4831   -4.5762 H        1 ZINC000003944422    0.0800
80     H80   -10.1025    5.8976   -6.2263 H        1 ZINC000003944422    0.0800
81     H81   -11.6238    6.9902   -7.7743 H        1 ZINC000003944422    0.1100
82     H82   -13.5840    8.4589   -8.0267 H        1 ZINC000003944422    0.1200
83     H83   -15.1856    8.7040   -6.1726 H        1 ZINC000003944422    0.1200
84     H84   -14.8275    7.4798   -4.0663 H        1 ZINC000003944422    0.1100
85     H85   -12.8698    6.0075   -3.8156 H        1 ZINC000003944422    0.1100
86     H86   -12.0445    2.9737   -4.4612 H        1 ZINC000003944422    0.4000
87     H87   -16.0673    4.6887   -4.8710 H        1 ZINC000003944422    0.0900
88     H88   -16.1795    3.2521   -5.9160 H        1 ZINC000003944422    0.0800
89     H89   -16.9464    4.4600   -2.4224 H        1 ZINC000003944422    0.1800
90     H90   -18.9408    0.7964   -2.0613 H        1 ZINC000003944422    0.2000
91     H91    -5.5331    1.9544   -3.6975 H        1 ZINC000003944422    0.0700
92     H92    -8.2014    1.7955   -2.2239 H        1 ZINC000003944422    0.0500
93     H93    -7.1571    3.2341   -2.3142 H        1 ZINC000003944422    0.0600
94     H94    -7.9190    2.5933   -3.7897 H        1 ZINC000003944422    0.0900
95     H95    -4.7402    0.4434   -1.8984 H        1 ZINC000003944422    0.0500
96     H96    -5.2898    1.9989   -1.2302 H        1 ZINC000003944422    0.0500
97     H97    -6.3278    0.5587   -1.1019 H        1 ZINC000003944422    0.0700
98     H98    -4.1881   -1.8390    0.4406 H        1 ZINC000003944422    0.1800
@<TRIPOS>BOND
1     1     2     1
2     1     55    1
3     1     56    1
4     1     57    1
5     2     3     1
6     2     4     1
7     2     58    1
8     3     59    1
9     3     60    1
10    3     61    1
11    4     54    1
12    4     5     2
13    5     6     1
14    6     7     1
15    6     53    2
16    7     8     1
17    7     62    1
18    7     63    1
19    8     9     1
20    8     10    am
21    9     64    1
22    9     65    1
23    9     66    1
24    10    11    2
25    10    12    am
26    12    13    1
27    12    67    1
28    13    14    1
29    13    15    1
30    13    50    1
31    15    16    2
32    15    17    am
33    17    18    1
34    17    68    1
35    18    19    1
36    18    20    1
37    18    27    1
38    20    21    1
39    20    69    1
40    20    70    1
41    21    26    ar
42    21    22    ar
43    22    23    ar
44    22    71    1
45    23    24    ar
46    23    72    1
47    24    25    ar
48    24    73    1
49    25    26    ar
50    25    74    1
51    26    75    1
52    27    28    1
53    27    76    1
54    27    77    1
55    28    29    1
56    28    30    1
57    28    31    1
58    30    78    1
59    31    32    1
60    31    33    1
61    31    40    1
62    33    34    1
63    33    79    1
64    33    80    1
65    34    39    ar
66    34    35    ar
67    35    36    ar
68    35    81    1
69    36    37    ar
70    36    82    1
71    37    38    ar
72    37    83    1
73    38    39    ar
74    38    84    1
75    39    85    1
76    40    41    am
77    40    86    1
78    41    42    2
79    41    43    1
80    43    44    1
81    44    45    1
82    44    87    1
83    44    88    1
84    45    49    1
85    45    46    2
86    46    47    1
87    46    89    1
88    47    48    2
89    48    49    1
90    48    90    1
91    50    51    1
92    50    52    1
93    50    91    1
94    51    92    1
95    51    93    1
96    51    94    1
97    52    95    1
98    52    96    1
99    52    97    1
100   53    54    1
101   53    98    1
@<TRIPOS>SUBSTRUCTURE
1   ZINC000003944422 1     RESIDUE    1   A     ZIN   1
