@<TRIPOS>MOLECULE
ZINC000003953037
45   46    0    0    0
SMALL
USER_CHARGES
NO_NAME
@<TRIPOS>ATOM
1 C1       -0.1451     1.5286    -2.3356 C.3    1 <0>      -0.1900
2 C2       -0.1132    -0.0010    -2.3406 C.3    1 <0>      -0.0200
3 N3        0.6897    -0.4778    -1.2066 N.4    1 <0>      -0.5100
4 H4        1.6499    -0.1942    -1.3315 H      1 <0>       0.4300
5 H5        0.3308    -0.0823    -0.3505 H      1 <0>       0.4300
6 C6        0.6170    -1.9434    -1.1371 C.3    1 <0>       0.0700
7 H7       -0.4297    -2.2424    -1.0820 H      1 <0>       0.1700
8 C8        1.2306    -2.5276    -2.4005 C.3    1 <0>       0.0900
9 N9        1.2363    -4.0011    -2.3408 N.am   1 <0>      -0.9800
10 C10       0.4321    -4.8231    -3.2484 C.3    1 <0>       0.1200
11 C11       1.1982    -5.0389    -4.5551 C.3    1 <0>      -0.1500
12 C12       0.3583    -5.8973    -5.5030 C.3    1 <0>       0.0600
13 O13       1.0739    -6.0988    -6.7234 O.3    1 <0>      -0.3900
14 C14       0.3737    -6.8926    -7.6834 C.3    1 <0>       0.0300
15 S15       2.2229    -4.6714    -1.1678 S.o2   1 <0>       2.6900
16 O16       1.6387    -5.9107    -0.7907 O.2    1 <0>      -0.9100
17 O17       3.5621    -4.5367    -1.6234 O.2    1 <0>      -0.9100
18 C18       2.0232    -3.5642     0.2030 C.2    1 <0>      -0.7400
19 C19       1.3288    -2.4118     0.1187 C.2    1 <0>      -0.0700
20 C20       1.3227    -1.6948     1.3151 C.2    1 <0>      -0.0300
21 C21       1.9724    -2.2521     2.3319 C.2    1 <0>      -0.7700
22 S22       2.1135    -1.5632     3.9475 S.o2   1 <0>       2.7200
23 N23       0.8294    -2.1207     4.8320 N.am   1 <0>      -1.2400
24 O24       3.2783    -2.1347     4.5270 O.2    1 <0>      -0.9400
25 O25       1.9240    -0.1622     3.8042 O.2    1 <0>      -0.9300
26 S26       2.6713    -3.7809     1.8168 S.3    1 <0>       0.4800
27 H27      -0.5881     1.8798    -1.4036 H      1 <0>       0.0800
28 H28       0.8710     1.9135    -2.4225 H      1 <0>       0.0800
29 H29      -0.7408     1.8824    -3.1770 H      1 <0>       0.1100
30 H30      -1.1293    -0.3859    -2.2537 H      1 <0>       0.1400
31 H31       0.3298    -0.3521    -3.2726 H      1 <0>       0.1400
32 H32       0.6495    -2.2052    -3.2645 H      1 <0>       0.1300
33 H33       2.2545    -2.1680    -2.5023 H      1 <0>       0.1100
34 H34       0.2298    -5.7874    -2.7823 H      1 <0>       0.1100
35 H35      -0.5099    -4.3166    -3.4589 H      1 <0>       0.1000
36 H36       1.4005    -4.0745    -5.0212 H      1 <0>       0.0800
37 H37       2.1402    -5.5454    -4.3445 H      1 <0>       0.0800
38 H38       0.1560    -6.8616    -5.0369 H      1 <0>       0.0600
39 H39      -0.5836    -5.3908    -5.7135 H      1 <0>       0.0500
40 H40       0.1717    -7.8776    -7.2626 H      1 <0>       0.0500
41 H41      -0.5679    -6.4067    -7.9392 H      1 <0>       0.0400
42 H42       0.9832    -6.9989    -8.5808 H      1 <0>       0.0900
43 H43       0.8203    -0.7434     1.4096 H      1 <0>       0.1600
44 H44       0.9167    -2.2418     5.7904 H      1 <0>       0.4300
45 H45      -0.0102    -2.3262     4.3917 H      1 <0>       0.4200
@<TRIPOS>BOND
1    1    2 1
2    1   27 1
3    1   28 1
4    1   29 1
5    2    3 1
6    2   30 1
7    2   31 1
8    3    4 1
9    3    5 1
10    3    6 1
11    6    7 1
12    6   19 1
13    6    8 1
14    8    9 1
15    8   32 1
16    8   33 1
17    9   10 1
18    9   15 am
19   10   11 1
20   10   34 1
21   10   35 1
22   11   12 1
23   11   36 1
24   11   37 1
25   12   13 1
26   12   38 1
27   12   39 1
28   13   14 1
29   14   40 1
30   14   41 1
31   14   42 1
32   15   16 2
33   15   17 2
34   15   18 1
35   18   26 1
36   18   19 2
37   19   20 1
38   20   21 2
39   20   43 1
40   21   22 1
41   21   26 1
42   22   23 am
43   22   24 2
44   22   25 2
45   23   44 1
46   23   45 1
