@<TRIPOS>MOLECULE
ZINC000022443609
94    96    1     0     0
SMALL
USER_CHARGES
@<TRIPOS>ATOM
1      C1      0.3731    1.1040    0.6269 C.ar     1 ZINC000022443609   -0.0900
2      C2      1.6156    1.7070    0.5664 C.ar     1 ZINC000022443609   -0.1500
3      C3      2.7194    0.9770    0.1667 C.ar     1 ZINC000022443609   -0.1000
4      C4      4.0738    1.6345    0.1003 C.3      1 ZINC000022443609    0.0500
5      N5      5.0520    0.8153    0.8283 N.3      1 ZINC000022443609   -0.5200
6      C6      6.4185    1.3074    0.6082 C.3      1 ZINC000022443609    0.0500
7      C7      6.4299    2.2642   -0.5857 C.3      1 ZINC000022443609   -0.2000
8      C8      7.1949    3.5357   -0.2130 C.3      1 ZINC000022443609   -0.0200
9      N9      6.3978    4.7129   -0.5830 N.4      1 ZINC000022443609   -0.5100
10     H10     6.7870    5.1353   -1.4126 H        1 ZINC000022443609    0.4500
11     H11     5.4460    4.4313   -0.7639 H        1 ZINC000022443609    0.4100
12     C12     6.4200    5.6851    0.5180 C.3      1 ZINC000022443609   -0.0300
13     C13     5.0182    6.2660    0.7138 C.3      1 ZINC000022443609    0.0300
14     N14     4.6775    6.2522    2.1427 N.3      1 ZINC000022443609   -0.6700
15     C15     3.3201    5.7323    2.3552 C.3      1 ZINC000022443609    0.0500
16     C16     3.3351    4.7217    3.5039 C.3      1 ZINC000022443609   -0.1700
17     C17     2.5703    3.4640    3.0866 C.3      1 ZINC000022443609   -0.0200
18     N18     3.2964    2.2735    3.5488 N.4      1 ZINC000022443609   -0.5100
19     H19     4.2456    2.5267    3.7790 H        1 ZINC000022443609    0.4200
20     H20     2.8406    1.8981    4.3670 H        1 ZINC000022443609    0.4300
21     C21     3.3041    1.2609    2.4846 C.3      1 ZINC000022443609   -0.1100
22     C22     4.7346    0.7661    2.2617 C.3      1 ZINC000022443609    0.0300
23     C23     2.5808   -0.3561   -0.1715 C.ar     1 ZINC000022443609   -0.0700
24     C24     1.3385   -0.9592   -0.1106 C.ar     1 ZINC000022443609   -0.1300
25     C25     0.2345   -0.2289    0.2877 C.ar     1 ZINC000022443609   -0.1000
26     C26    -1.1199   -0.8864    0.3546 C.3      1 ZINC000022443609    0.0500
27     N27    -1.9582   -0.1823    1.3341 N.3      1 ZINC000022443609   -0.5200
28     C28    -3.3566   -0.6232    1.2437 C.3      1 ZINC000022443609    0.0500
29     C29    -3.5681   -1.3829   -0.0675 C.3      1 ZINC000022443609   -0.2000
30     C30    -4.3104   -2.6906    0.2148 C.3      1 ZINC000022443609   -0.0200
31     N31    -3.6110   -3.8025   -0.4429 N.4      1 ZINC000022443609   -0.5100
32     H32    -4.1277   -4.0878   -1.2612 H        1 ZINC000022443609    0.4500
33     H33    -2.6866   -3.5039   -0.7159 H        1 ZINC000022443609    0.4100
34     C34    -3.5051   -4.9336    0.4884 C.3      1 ZINC000022443609   -0.0300
35     C35    -2.1081   -5.5492    0.3862 C.3      1 ZINC000022443609    0.0300
36     N36    -1.5661   -5.7602    1.7352 N.3      1 ZINC000022443609   -0.6700
37     C37    -0.1770   -5.2906    1.8238 C.3      1 ZINC000022443609    0.0500
38     C38     0.0036   -4.4706    3.1028 C.3      1 ZINC000022443609   -0.1700
39     C39     0.7389   -3.1696    2.7749 C.3      1 ZINC000022443609   -0.0200
40     N40     0.1233   -2.0595    3.5143 N.4      1 ZINC000022443609   -0.5200
41     H41    -0.7905   -2.3377    3.8394 H        1 ZINC000022443609    0.4300
42     H42     0.7028   -1.8194    4.3046 H        1 ZINC000022443609    0.4300
43     C43    -0.0057   -0.8938    2.6296 C.3      1 ZINC000022443609   -0.0800
44     C44    -1.4376   -0.3589    2.6963 C.3      1 ZINC000022443609    0.0300
45     H45    -0.4884    1.6732    0.9434 H        1 ZINC000022443609    0.1600
46     H46     1.7239    2.7485    0.8310 H        1 ZINC000022443609    0.1300
47     H47     4.3815    1.7280   -0.9412 H        1 ZINC000022443609    0.1300
48     H48     4.0198    2.6243    0.5535 H        1 ZINC000022443609    0.0400
49     H49     6.7630    1.8333    1.4986 H        1 ZINC000022443609    0.0700
50     H50     7.0797    0.4650    0.4051 H        1 ZINC000022443609    0.1200
51     H51     6.9174    1.7821   -1.4330 H        1 ZINC000022443609    0.1200
52     H52     5.4055    2.5221   -0.8544 H        1 ZINC000022443609    0.1100
53     H53     7.3812    3.5460    0.8609 H        1 ZINC000022443609    0.1300
54     H54     8.1449    3.5578   -0.7468 H        1 ZINC000022443609    0.1500
55     H55     6.7389    5.1887    1.4346 H        1 ZINC000022443609    0.1300
56     H56     7.1163    6.4889    0.2790 H        1 ZINC000022443609    0.1600
57     H57     4.9950    7.2914    0.3447 H        1 ZINC000022443609    0.1200
58     H58     4.2955    5.6648    0.1621 H        1 ZINC000022443609    0.0700
59     H59     5.3545    5.7222    2.6707 H        1 ZINC000022443609    0.3500
60     H60     2.6506    6.5556    2.6043 H        1 ZINC000022443609    0.1100
61     H61     2.9718    5.2432    1.4455 H        1 ZINC000022443609    0.0600
62     H62     4.3655    4.4580    3.7424 H        1 ZINC000022443609    0.0900
63     H63     2.8603    5.1615    4.3809 H        1 ZINC000022443609    0.1200
64     H64     1.5758    3.4789    3.5325 H        1 ZINC000022443609    0.1500
65     H65     2.4813    3.4364    2.0006 H        1 ZINC000022443609    0.1300
66     H66     2.6710    0.4227    2.7760 H        1 ZINC000022443609    0.1200
67     H67     2.9237    1.7000    1.5624 H        1 ZINC000022443609    0.2000
68     H68     4.8240   -0.2599    2.6187 H        1 ZINC000022443609    0.1200
69     H69     5.4289    1.4032    2.8096 H        1 ZINC000022443609    0.0800
70     H70     3.4432   -0.9264   -0.4838 H        1 ZINC000022443609    0.1500
71     H71     1.2302   -2.0006   -0.3756 H        1 ZINC000022443609    0.1400
72     H72    -1.5933   -0.8438   -0.6262 H        1 ZINC000022443609    0.1300
73     H73    -1.0039   -1.9272    0.6572 H        1 ZINC000022443609    0.0400
74     H74    -3.5861   -1.2782    2.0842 H        1 ZINC000022443609    0.0700
75     H75    -4.0140    0.2458    1.2702 H        1 ZINC000022443609    0.1200
76     H76    -4.1569   -0.7711   -0.7509 H        1 ZINC000022443609    0.1200
77     H77    -2.6011   -1.6042   -0.5192 H        1 ZINC000022443609    0.1100
78     H78    -4.3413   -2.8660    1.2902 H        1 ZINC000022443609    0.1300
79     H79    -5.3273   -2.6218   -0.1714 H        1 ZINC000022443609    0.1500
80     H80    -3.6740   -4.5830    1.5066 H        1 ZINC000022443609    0.1300
81     H81    -4.2527   -5.6849    0.2340 H        1 ZINC000022443609    0.1600
82     H82    -2.1694   -6.5050   -0.1343 H        1 ZINC000022443609    0.1200
83     H83    -1.4537   -4.8756   -0.1670 H        1 ZINC000022443609    0.0700
84     H84    -2.1440   -5.3131    2.4311 H        1 ZINC000022443609    0.3500
85     H85     0.4958   -6.1480    1.8439 H        1 ZINC000022443609    0.1100
86     H86     0.0523   -4.6691    0.9583 H        1 ZINC000022443609    0.0600
87     H87    -0.9735   -4.2388    3.5267 H        1 ZINC000022443609    0.0900
88     H88     0.5854   -5.0451    3.8236 H        1 ZINC000022443609    0.1200
89     H89     1.7861   -3.2616    3.0630 H        1 ZINC000022443609    0.1500
90     H90     0.6723   -2.9744    1.7046 H        1 ZINC000022443609    0.1200
91     H91     0.6879   -0.1163    2.9497 H        1 ZINC000022443609    0.1300
92     H92     0.2252   -1.1875    1.6056 H        1 ZINC000022443609    0.1800
93     H93    -1.4434    0.5999    3.2147 H        1 ZINC000022443609    0.1200
94     H94    -2.0654   -1.0677    3.2362 H        1 ZINC000022443609    0.0800
@<TRIPOS>BOND
1     1     25    ar
2     1     2     ar
3     1     45    1
4     2     3     ar
5     2     46    1
6     3     4     1
7     3     23    ar
8     4     5     1
9     4     47    1
10    4     48    1
11    5     22    1
12    5     6     1
13    6     7     1
14    6     49    1
15    6     50    1
16    7     8     1
17    7     51    1
18    7     52    1
19    8     9     1
20    8     53    1
21    8     54    1
22    9     10    1
23    9     11    1
24    9     12    1
25    12    13    1
26    12    55    1
27    12    56    1
28    13    14    1
29    13    57    1
30    13    58    1
31    14    15    1
32    14    59    1
33    15    16    1
34    15    60    1
35    15    61    1
36    16    17    1
37    16    62    1
38    16    63    1
39    17    18    1
40    17    64    1
41    17    65    1
42    18    19    1
43    18    20    1
44    18    21    1
45    21    22    1
46    21    66    1
47    21    67    1
48    22    68    1
49    22    69    1
50    23    24    ar
51    23    70    1
52    24    25    ar
53    24    71    1
54    25    26    1
55    26    27    1
56    26    72    1
57    26    73    1
58    27    44    1
59    27    28    1
60    28    29    1
61    28    74    1
62    28    75    1
63    29    30    1
64    29    76    1
65    29    77    1
66    30    31    1
67    30    78    1
68    30    79    1
69    31    32    1
70    31    33    1
71    31    34    1
72    34    35    1
73    34    80    1
74    34    81    1
75    35    36    1
76    35    82    1
77    35    83    1
78    36    37    1
79    36    84    1
80    37    38    1
81    37    85    1
82    37    86    1
83    38    39    1
84    38    87    1
85    38    88    1
86    39    40    1
87    39    89    1
88    39    90    1
89    40    41    1
90    40    42    1
91    40    43    1
92    43    44    1
93    43    91    1
94    43    92    1
95    44    93    1
96    44    94    1
@<TRIPOS>SUBSTRUCTURE
1   ZINC000022443609 1     RESIDUE    1   A     ZIN   1
