@<TRIPOS>MOLECULE
ZINC000001530303
33    32    1     0     0
SMALL
USER_CHARGES
@<TRIPOS>ATOM
1      C1      0.4380   -0.3781    1.2647 C.3      1 ZINC000001530303   -0.1500
2      C2     -0.0633    0.1562   -0.0785 C.3      1 ZINC000001530303   -0.0900
3      C3     -1.5209   -0.2623   -0.2819 C.3      1 ZINC000001530303   -0.1300
4      C4      0.0351    1.6830   -0.0888 C.3      1 ZINC000001530303    0.0800
5      O5     -0.7661    2.2192    0.9660 O.3      1 ZINC000001530303   -0.5600
6      C6      0.7945   -0.4178   -1.2079 C.3      1 ZINC000001530303    0.1000
7      H7      0.8062   -1.5055   -1.1384 H        1 ZINC000001530303    0.1300
8      O8      0.2461   -0.0270   -2.4683 O.3      1 ZINC000001530303   -0.5300
9      C9      2.2014    0.1085   -1.0873 C.2      1 ZINC000001530303    0.4900
10     O10     2.6355    0.8754   -1.9205 O.2      1 ZINC000001530303   -0.5300
11     N11     2.9774   -0.2731   -0.0535 N.am     1 ZINC000001530303   -0.7300
12     C12     4.3095    0.3120    0.1176 C.3      1 ZINC000001530303    0.1200
13     C13     4.9749   -0.2886    1.3575 C.3      1 ZINC000001530303   -0.1300
14     C14     6.3662    0.3225    1.5362 C.3      1 ZINC000001530303    0.0800
15     O15     6.9876   -0.2384    2.6943 O.3      1 ZINC000001530303   -0.5700
16     H16     0.4755   -1.4669    1.2314 H        1 ZINC000001530303    0.0600
17     H17     1.4357    0.0140    1.4622 H        1 ZINC000001530303    0.0600
18     H18    -0.2401   -0.0619    2.0574 H        1 ZINC000001530303    0.0800
19     H19    -2.1414    0.1963    0.4880 H        1 ZINC000001530303    0.0700
20     H20    -1.8593    0.0660   -1.2646 H        1 ZINC000001530303    0.0600
21     H21    -1.6002   -1.3472   -0.2140 H        1 ZINC000001530303    0.0600
22     H22     1.0735    1.9812    0.0561 H        1 ZINC000001530303    0.0500
23     H23    -0.3220    2.0637   -1.0457 H        1 ZINC000001530303    0.0500
24     H24    -0.7512    3.1846    1.0195 H        1 ZINC000001530303    0.3800
25     H25     0.2049    0.9302   -2.5995 H        1 ZINC000001530303    0.3800
26     H26     2.6538   -0.9352    0.5773 H        1 ZINC000001530303    0.4100
27     H27     4.9169    0.0959   -0.7614 H        1 ZINC000001530303    0.0700
28     H28     4.2193    1.3913    0.2404 H        1 ZINC000001530303    0.0700
29     H29     4.3676   -0.0725    2.2365 H        1 ZINC000001530303    0.0800
30     H30     5.0651   -1.3679    1.2347 H        1 ZINC000001530303    0.0800
31     H31     6.9735    0.1063    0.6573 H        1 ZINC000001530303    0.0500
32     H32     6.2759    1.4018    1.6590 H        1 ZINC000001530303    0.0500
33     H33     7.8749    0.1040    2.8693 H        1 ZINC000001530303    0.3800
@<TRIPOS>BOND
1     1     2     1
2     1     16    1
3     1     17    1
4     1     18    1
5     2     3     1
6     2     4     1
7     2     6     1
8     3     19    1
9     3     20    1
10    3     21    1
11    4     5     1
12    4     22    1
13    4     23    1
14    5     24    1
15    6     7     1
16    6     8     1
17    6     9     1
18    8     25    1
19    9     10    2
20    9     11    am
21    11    12    1
22    11    26    1
23    12    13    1
24    12    27    1
25    12    28    1
26    13    14    1
27    13    29    1
28    13    30    1
29    14    15    1
30    14    31    1
31    14    32    1
32    15    33    1
@<TRIPOS>SUBSTRUCTURE
1   ZINC000001530303 1     RESIDUE    1   A     ZIN   1
