@<TRIPOS>MOLECULE
ZINC000000538275
61   65    0    0    0
SMALL
USER_CHARGES
NO_NAME
@<TRIPOS>ATOM
1 O1       -0.3107    -1.3775    -0.4793 O.2    1 <0>      -0.4400
2 C2       -0.1886    -0.1658    -0.4560 C.2    1 <0>       0.4700
3 C3        1.1449     0.4353    -0.4680 C.2    1 <0>      -0.1400
4 C4        1.8035     0.8168     0.6685 C.2    1 <0>      -0.0900
5 C5        1.2658     0.6743     2.0338 C.ar   1 <0>      -0.0500
6 C6        0.6817    -0.5308     2.4351 C.ar   1 <0>      -0.0800
7 C7        0.1806    -0.6593     3.7117 C.ar   1 <0>      -0.1400
8 C8        0.2547     0.4067     4.6000 C.ar   1 <0>       0.1200
9 O9       -0.2410     0.2757     5.8574 O.3    1 <0>      -0.5000
10 C10       0.8348     1.6063     4.2057 C.ar   1 <0>      -0.1400
11 C11       1.3437     1.7420     2.9330 C.ar   1 <0>      -0.0800
12 S12       3.3719     1.4963     0.2846 S.3    1 <0>       0.1500
13 C13       3.1413     1.2642    -1.4436 C.ar   1 <0>      -0.1300
14 C14       3.9942     1.5698    -2.5092 C.ar   1 <0>      -0.1100
15 C15       3.6133     1.3013    -3.8080 C.ar   1 <0>       0.1300
16 O16       4.4489     1.6018    -4.8372 O.3    1 <0>      -0.4900
17 C17       2.3741     0.7225    -4.0645 C.ar   1 <0>      -0.1300
18 C18       1.5265     0.4174    -3.0297 C.ar   1 <0>      -0.0600
19 C19       1.9018     0.6791    -1.6967 C.ar   1 <0>      -0.0500
20 C20      -1.3872     0.6968    -0.4217 C.ar   1 <0>      -0.2000
21 C21      -1.2542     2.0848    -0.5131 C.ar   1 <0>      -0.0200
22 C22      -2.3741     2.8855    -0.4807 C.ar   1 <0>      -0.1600
23 C23      -3.6355     2.3148    -0.3574 C.ar   1 <0>       0.1700
24 O24      -4.7369     3.1074    -0.3259 O.3    1 <0>      -0.3000
25 C25      -6.0019     2.4553    -0.1976 C.3    1 <0>       0.0100
26 C26      -7.1165     3.5034    -0.1802 C.3    1 <0>       0.0600
27 N27      -7.1653     4.1877    -1.4791 N.3    1 <0>      -0.5300
28 C28      -7.1526     3.2208    -2.5842 C.3    1 <0>       0.0500
29 C29      -7.3507     3.9576    -3.9108 C.3    1 <0>      -0.1200
30 C30      -6.2281     4.9830    -4.0921 C.3    1 <0>      -0.1200
31 C31      -6.2328     5.9487    -2.9039 C.3    1 <0>      -0.1200
32 C32      -6.0671     5.1542    -1.6065 C.3    1 <0>       0.0500
33 C33      -3.7720     0.9345    -0.2668 C.ar   1 <0>      -0.2200
34 C34      -2.6574     0.1266    -0.3037 C.ar   1 <0>      -0.0100
35 H35       0.6231    -1.3596     1.7451 H      1 <0>       0.1300
36 H36      -0.2708    -1.5898     4.0226 H      1 <0>       0.1400
37 H37       0.4022    -0.0504     6.5017 H      1 <0>       0.4000
38 H38       0.8906     2.4320     4.8996 H      1 <0>       0.1400
39 H39       1.7948     2.6746     2.6274 H      1 <0>       0.1300
40 H40       4.9568     2.0191    -2.3143 H      1 <0>       0.1400
41 H41       5.0533     0.8854    -5.0751 H      1 <0>       0.4000
42 H42       2.0784     0.5129    -5.0819 H      1 <0>       0.1400
43 H43       0.5663    -0.0310    -3.2380 H      1 <0>       0.1300
44 H44      -0.2744     2.5290    -0.6085 H      1 <0>       0.1300
45 H45      -2.2722     3.9584    -0.5509 H      1 <0>       0.1400
46 H46      -6.1504     1.7810    -1.0410 H      1 <0>       0.0700
47 H47      -6.0244     1.8856     0.7314 H      1 <0>       0.0700
48 H48      -8.0721     3.0144     0.0091 H      1 <0>       0.1000
49 H49      -6.9186     4.2312     0.6067 H      1 <0>       0.0900
50 H50      -6.1961     2.6981    -2.5984 H      1 <0>       0.0400
51 H51      -7.9582     2.4999    -2.4453 H      1 <0>       0.0700
52 H52      -7.3255     3.2414    -4.7322 H      1 <0>       0.0700
53 H53      -8.3131     4.4692    -3.9027 H      1 <0>       0.0700
54 H54      -5.2685     4.4681    -4.1393 H      1 <0>       0.0600
55 H55      -6.3893     5.5402    -5.0150 H      1 <0>       0.0600
56 H56      -5.4090     6.6551    -3.0058 H      1 <0>       0.0700
57 H57      -7.1776     6.4917    -2.8799 H      1 <0>       0.0700
58 H58      -6.0843     5.8375    -0.7574 H      1 <0>       0.0700
59 H59      -5.1158     4.6224    -1.6252 H      1 <0>       0.0600
60 H60      -4.7538     0.4948    -0.1714 H      1 <0>       0.1300
61 H61      -2.7643    -0.9458    -0.2335 H      1 <0>       0.1400
@<TRIPOS>BOND
1    1    2 2
2    2    3 1
3    2   20 1
4    3   19 1
5    3    4 2
6    4    5 1
7    4   12 1
8    5   11 ar
9    5    6 ar
10    6    7 ar
11    6   35 1
12    7    8 ar
13    7   36 1
14    8    9 1
15    8   10 ar
16    9   37 1
17   10   11 ar
18   10   38 1
19   11   39 1
20   12   13 1
21   13   19 ar
22   13   14 ar
23   14   15 ar
24   14   40 1
25   15   16 1
26   15   17 ar
27   16   41 1
28   17   18 ar
29   17   42 1
30   18   19 ar
31   18   43 1
32   20   34 ar
33   20   21 ar
34   21   22 ar
35   21   44 1
36   22   23 ar
37   22   45 1
38   23   24 1
39   23   33 ar
40   24   25 1
41   25   26 1
42   25   46 1
43   25   47 1
44   26   27 1
45   26   48 1
46   26   49 1
47   27   32 1
48   27   28 1
49   28   29 1
50   28   50 1
51   28   51 1
52   29   30 1
53   29   52 1
54   29   53 1
55   30   31 1
56   30   54 1
57   30   55 1
58   31   32 1
59   31   56 1
60   31   57 1
61   32   58 1
62   32   59 1
63   33   34 ar
64   33   60 1
65   34   61 1
