@<TRIPOS>MOLECULE
ZINC000011726211
45    48    1     0     0
SMALL
USER_CHARGES
@<TRIPOS>ATOM
1      C1     -0.0178    1.4648    0.0101 C.3      1 ZINC000011726211   -0.0500
2      N2      0.0021   -0.0041    0.0020 N.4      1 ZINC000011726211   -0.3900
3      H3     -0.9453   -0.3513    0.0092 H        1 ZINC000011726211    0.4300
4      C4      0.7063   -0.4874    1.1956 C.3      1 ZINC000011726211    0.0000
5      C5      0.5798   -2.0127    1.2810 C.3      1 ZINC000011726211   -0.1100
6      C6      1.0749   -2.6021   -0.0235 C.2      1 ZINC000011726211   -0.1100
7      C7      1.9461   -3.6230   -0.0384 C.2      1 ZINC000011726211    0.0300
8      C8      2.4468   -4.2104    1.2256 C.2      1 ZINC000011726211    0.2700
9      N9      1.6981   -4.4073    2.3003 N.2      1 ZINC000011726211   -0.4900
10     C10     2.4190   -4.9845    3.2505 C.2      1 ZINC000011726211    0.0900
11     C11     3.6996   -5.1596    2.7628 C.2      1 ZINC000011726211   -0.1400
12     C12     4.7875   -5.7561    3.4385 C.2      1 ZINC000011726211    0.4000
13     O13     4.6432   -6.1775    4.5684 O.2      1 ZINC000011726211   -0.4400
14     N14     3.7068   -4.6323    1.4718 N.pl3    1 ZINC000011726211   -0.4100
15     C15     4.9171   -4.5683    0.6503 C.3      1 ZINC000011726211    0.1000
16     C16     4.7660   -3.6753   -0.5590 C.3      1 ZINC000011726211   -0.0900
17     C17     3.7899   -4.1998   -1.5646 C.ar     1 ZINC000011726211   -0.0800
18     C18     4.2604   -4.7078   -2.7668 C.ar     1 ZINC000011726211   -0.1100
19     C19     3.3719   -5.2021   -3.7033 C.ar     1 ZINC000011726211   -0.1000
20     C20     2.0111   -5.1971   -3.4557 C.ar     1 ZINC000011726211   -0.1100
21     C21     1.5320   -4.6906   -2.2618 C.ar     1 ZINC000011726211   -0.1000
22     C22     2.4267   -4.1952   -1.3255 C.ar     1 ZINC000011726211   -0.0600
23     C23     0.5517   -1.9989   -1.3106 C.3      1 ZINC000011726211   -0.1100
24     C24     0.6833   -0.4745   -1.2099 C.3      1 ZINC000011726211    0.0000
25     H25     1.0047    1.8421    0.0024 H        1 ZINC000011726211    0.1200
26     H26    -0.5450    1.8259   -0.8730 H        1 ZINC000011726211    0.1200
27     H27    -0.5280    1.8163    0.9069 H        1 ZINC000011726211    0.1200
28     H28     1.7593   -0.2132    1.1322 H        1 ZINC000011726211    0.1300
29     H29     0.2662   -0.0360    2.0848 H        1 ZINC000011726211    0.1300
30     H30     1.1854   -2.3863    2.1067 H        1 ZINC000011726211    0.1300
31     H31    -0.4637   -2.2871    1.4360 H        1 ZINC000011726211    0.1100
32     H32     2.0679   -5.2673    4.2320 H        1 ZINC000011726211    0.1900
33     H33     5.7474   -5.8374    2.9503 H        1 ZINC000011726211    0.1000
34     H34     5.7371   -4.1932    1.2627 H        1 ZINC000011726211    0.1100
35     H35     5.1660   -5.5748    0.3139 H        1 ZINC000011726211    0.1000
36     H36     4.4324   -2.6918   -0.2280 H        1 ZINC000011726211    0.0800
37     H37     5.7389   -3.5686   -1.0387 H        1 ZINC000011726211    0.1100
38     H38     5.3208   -4.7168   -2.9711 H        1 ZINC000011726211    0.1300
39     H39     3.7439   -5.5958   -4.6377 H        1 ZINC000011726211    0.1300
40     H40     1.3250   -5.5874   -4.1928 H        1 ZINC000011726211    0.1300
41     H41     0.4713   -4.6823   -2.0587 H        1 ZINC000011726211    0.1300
42     H42     1.1393   -2.3635   -2.1532 H        1 ZINC000011726211    0.1200
43     H43    -0.4949   -2.2717   -1.4459 H        1 ZINC000011726211    0.1100
44     H44     0.2246   -0.0118   -2.0837 H        1 ZINC000011726211    0.1400
45     H45     1.7380   -0.2030   -1.1665 H        1 ZINC000011726211    0.1300
@<TRIPOS>BOND
1     1     2     1
2     1     25    1
3     1     26    1
4     1     27    1
5     2     3     1
6     2     24    1
7     2     4     1
8     4     5     1
9     4     28    1
10    4     29    1
11    5     6     1
12    5     30    1
13    5     31    1
14    6     7     2
15    6     23    1
16    7     22    1
17    7     8     1
18    8     14    1
19    8     9     2
20    9     10    1
21    10    11    2
22    10    32    1
23    11    12    1
24    11    14    1
25    12    13    2
26    12    33    1
27    14    15    1
28    15    16    1
29    15    34    1
30    15    35    1
31    16    17    1
32    16    36    1
33    16    37    1
34    17    22    ar
35    17    18    ar
36    18    19    ar
37    18    38    1
38    19    20    ar
39    19    39    1
40    20    21    ar
41    20    40    1
42    21    22    ar
43    21    41    1
44    23    24    1
45    23    42    1
46    23    43    1
47    24    44    1
48    24    45    1
@<TRIPOS>SUBSTRUCTURE
1   ZINC000011726211 1     RESIDUE    1   A     ZIN   1
