@<TRIPOS>MOLECULE
ZINC000038212689
12   12    0    0    0
SMALL
USER_CHARGES
NO_NAME
@<TRIPOS>ATOM
1 O1        0.0021    -0.0041     0.0020 O.2    1 <0>      -0.5300
2 C2       -0.0144     1.2118     0.0087 C.2    1 <0>       0.7000
3 N3       -1.1939     1.8587     0.0290 N.am   1 <0>      -0.6300
4 C4       -1.2385     3.2287     0.0369 C.2    1 <0>       0.1500
5 C5       -0.0872     3.9348     0.0246 C.2    1 <0>      -0.0700
6 F6       -0.1122     5.2855     0.0326 F      1 <0>      -0.1000
7 C7        1.1476     3.2391     0.0037 C.2    1 <0>       0.5400
8 O8        2.1990     3.8537    -0.0076 O.2    1 <0>      -0.4900
9 N9        1.1476     1.8908     0.0013 N.am   1 <0>      -0.6500
10 H10      -2.0203     1.3509     0.0379 H      1 <0>       0.4500
11 H11      -2.1893     3.7408     0.0526 H      1 <0>       0.2000
12 H12       1.9888     1.4081    -0.0130 H      1 <0>       0.4400
@<TRIPOS>BOND
1    1    2 2
2    2    9 am
3    2    3 am
4    3    4 1
5    3   10 1
6    4    5 2
7    4   11 1
8    5    6 1
9    5    7 1
10    7    8 2
11    7    9 am
12    9   12 1
