@<TRIPOS>MOLECULE
ZINC000028639340
93    99    1     0     0
SMALL
USER_CHARGES
@<TRIPOS>ATOM
1      C1     -0.0187    1.5258    0.0104 C.3      1 ZINC000028639340   -0.1500
2      C2      0.0021   -0.0041    0.0020 C.3      1 ZINC000028639340   -0.1300
3      C3     -1.4333   -0.5336    0.0129 C.3      1 ZINC000028639340    0.1500
4      H4     -1.9862   -0.1019   -0.8214 H        1 ZINC000028639340    0.1200
5      C5     -1.4157   -2.0577   -0.1212 C.3      1 ZINC000028639340    0.1000
6      H6     -0.9334   -2.3344   -1.0587 H        1 ZINC000028639340    0.1200
7      C7     -2.8510   -2.5872   -0.1103 C.3      1 ZINC000028639340   -0.1900
8      O8     -0.6908   -2.6237    0.9725 O.3      1 ZINC000028639340   -0.5500
9      N9     -2.0815   -0.1618    1.2729 N.am     1 ZINC000028639340   -0.4400
10     N10    -1.6614   -0.5216    2.5608 N.2      1 ZINC000028639340   -0.2700
11     C11    -2.4872   -0.0054    3.4132 C.2      1 ZINC000028639340    0.2600
12     N12    -3.4527    0.6933    2.7275 N.am     1 ZINC000028639340   -0.5000
13     C13    -4.5248    1.3936    3.3024 C.ar     1 ZINC000028639340    0.1200
14     C14    -5.4359    2.0558    2.4909 C.ar     1 ZINC000028639340   -0.1100
15     C15    -6.4908    2.7443    3.0559 C.ar     1 ZINC000028639340   -0.1100
16     C16    -6.6403    2.7744    4.4365 C.ar     1 ZINC000028639340    0.1100
17     N17    -7.7090    3.4713    5.0092 N.3      1 ZINC000028639340   -0.4900
18     C18    -7.7129    4.8762    4.5782 C.3      1 ZINC000028639340    0.0600
19     C19    -8.9391    5.5826    5.1614 C.3      1 ZINC000028639340    0.0500
20     N20    -8.9066    5.4845    6.6273 N.3      1 ZINC000028639340   -0.4900
21     C21    -9.9759    6.1818    7.2004 C.ar     1 ZINC000028639340    0.0800
22     C22   -10.8912    6.8392    6.3890 C.ar     1 ZINC000028639340   -0.1300
23     C23   -11.9465    7.5269    6.9554 C.ar     1 ZINC000028639340   -0.1200
24     C24   -12.0921    7.5613    8.3343 C.ar     1 ZINC000028639340    0.1100
25     O25   -13.1313    8.2391    8.8913 O.3      1 ZINC000028639340   -0.3100
26     C26   -13.2200    8.2329   10.3175 C.3      1 ZINC000028639340    0.0700
27     C27   -14.4432    9.0406   10.7560 C.3      1 ZINC000028639340   -0.1200
28     H28   -14.4211   10.0442   10.3311 H        1 ZINC000028639340    0.1000
29     C29   -15.7577    8.3074   10.3883 C.3      1 ZINC000028639340    0.0500
30     O30   -16.7310    8.7877   11.3293 O.3      1 ZINC000028639340   -0.3400
31     C31   -16.0768    9.2497   12.5169 C.3      1 ZINC000028639340    0.1500
32     C32   -16.4151   10.7225   12.7563 C.3      1 ZINC000028639340    0.1300
33     N33   -17.8413   10.8519   13.0654 N.pl3    1 ZINC000028639340   -0.3700
34     C34   -18.3812   11.4399   14.1470 C.2      1 ZINC000028639340    0.2500
35     N35   -19.6828   11.3480   14.0518 N.2      1 ZINC000028639340   -0.5400
36     C36   -20.0100   10.7109   12.9283 C.2      1 ZINC000028639340    0.1900
37     N37   -18.9163   10.3916   12.2876 N.2      1 ZINC000028639340   -0.2900
38     C38   -16.5192    8.4251   13.6981 C.ar     1 ZINC000028639340   -0.1400
39     C39   -17.4482    7.4164   13.5271 C.ar     1 ZINC000028639340   -0.0300
40     C40   -17.8546    6.6589   14.6096 C.ar     1 ZINC000028639340   -0.1600
41     C41   -17.3313    6.9101   15.8665 C.ar     1 ZINC000028639340    0.1400
42     F42   -17.7284    6.1693   16.9243 F        1 ZINC000028639340   -0.1300
43     C43   -16.4006    7.9203   16.0390 C.ar     1 ZINC000028639340   -0.1900
44     C44   -15.9904    8.6746   14.9535 C.ar     1 ZINC000028639340    0.1300
45     F45   -15.0822    9.6608   15.1204 F        1 ZINC000028639340   -0.1300
46     C46   -14.5554    9.0906   12.3042 C.3      1 ZINC000028639340   -0.1300
47     C47   -11.1786    6.9046    9.1455 C.ar     1 ZINC000028639340   -0.1800
48     C48   -10.1256    6.2121    8.5806 C.ar     1 ZINC000028639340   -0.1000
49     C49    -8.9027    4.0795    7.0583 C.3      1 ZINC000028639340    0.0600
50     C50    -7.6765    3.3732    6.4751 C.3      1 ZINC000028639340    0.0500
51     C51    -5.7285    2.1117    5.2480 C.ar     1 ZINC000028639340   -0.1400
52     C52    -4.6769    1.4190    4.6820 C.ar     1 ZINC000028639340   -0.1100
53     C53    -3.1901    0.5954    1.4087 C.2      1 ZINC000028639340    0.6500
54     O54    -3.8388    1.0926    0.5055 O.2      1 ZINC000028639340   -0.5400
55     H55     1.0039    1.9031    0.0027 H        1 ZINC000028639340    0.0600
56     H56    -0.5459    1.8868   -0.8726 H        1 ZINC000028639340    0.0600
57     H57    -0.5289    1.8773    0.9072 H        1 ZINC000028639340    0.0500
58     H58     0.5123   -0.3556   -0.8948 H        1 ZINC000028639340    0.0800
59     H59     0.5293   -0.3651    0.8851 H        1 ZINC000028639340    0.0800
60     H60    -3.4039   -2.1555   -0.9446 H        1 ZINC000028639340    0.0700
61     H61    -2.8385   -3.6730   -0.2059 H        1 ZINC000028639340    0.0700
62     H62    -3.3333   -2.3105    0.8272 H        1 ZINC000028639340    0.0500
63     H63    -1.0643   -2.4179    1.8404 H        1 ZINC000028639340    0.3800
64     H64    -2.4279   -0.1069    4.4868 H        1 ZINC000028639340    0.2300
65     H65    -5.3194    2.0326    1.4174 H        1 ZINC000028639340    0.1600
66     H66    -7.1994    3.2597    2.4245 H        1 ZINC000028639340    0.1300
67     H67    -6.8071    5.3680    4.9329 H        1 ZINC000028639340    0.0600
68     H68    -7.7499    4.9227    3.4898 H        1 ZINC000028639340    0.0900
69     H69    -8.9286    6.6319    4.8668 H        1 ZINC000028639340    0.0900
70     H70    -9.8453    5.1079    4.7851 H        1 ZINC000028639340    0.0600
71     H71   -10.7776    6.8131    5.3153 H        1 ZINC000028639340    0.1300
72     H72   -12.6584    8.0382    6.3245 H        1 ZINC000028639340    0.1300
73     H73   -13.3168    7.2063   10.6711 H        1 ZINC000028639340    0.0700
74     H74   -12.3196    8.6792   10.7395 H        1 ZINC000028639340    0.0700
75     H75   -16.0591    8.5581    9.3712 H        1 ZINC000028639340    0.1000
76     H76   -15.6314    7.2297   10.4915 H        1 ZINC000028639340    0.0700
77     H77   -15.8265   11.0992   13.5928 H        1 ZINC000028639340    0.1200
78     H78   -16.1838   11.2987   11.8605 H        1 ZINC000028639340    0.1000
79     H79   -17.8356   11.9061   14.9541 H        1 ZINC000028639340    0.2100
80     H80   -21.0158   10.4967   12.5984 H        1 ZINC000028639340    0.2100
81     H81   -17.8572    7.2200   12.5471 H        1 ZINC000028639340    0.1500
82     H82   -18.5810    5.8711   14.4749 H        1 ZINC000028639340    0.1500
83     H83   -15.9918    8.1170   17.0191 H        1 ZINC000028639340    0.1500
84     H84   -14.1966    8.1622   12.7485 H        1 ZINC000028639340    0.0900
85     H85   -14.0158    9.9482   12.7059 H        1 ZINC000028639340    0.1000
86     H86   -11.2927    6.9319   10.2191 H        1 ZINC000028639340    0.1300
87     H87    -9.4144    5.7008    9.2124 H        1 ZINC000028639340    0.1300
88     H88    -8.8657    4.0331    8.1467 H        1 ZINC000028639340    0.0900
89     H89    -9.8085    3.5878    6.7036 H        1 ZINC000028639340    0.0600
90     H90    -7.6870    2.3238    6.7697 H        1 ZINC000028639340    0.0900
91     H91    -6.7703    3.8478    6.8514 H        1 ZINC000028639340    0.0600
92     H92    -5.8442    2.1352    6.3216 H        1 ZINC000028639340    0.1400
93     H93    -3.9678    0.9037    5.3130 H        1 ZINC000028639340    0.1300
@<TRIPOS>BOND
1     1     2     1
2     1     55    1
3     1     56    1
4     1     57    1
5     2     3     1
6     2     58    1
7     2     59    1
8     3     4     1
9     3     5     1
10    3     9     1
11    5     6     1
12    5     7     1
13    5     8     1
14    7     60    1
15    7     61    1
16    7     62    1
17    8     63    1
18    9     53    am
19    9     10    1
20    10    11    2
21    11    12    1
22    11    64    1
23    12    13    1
24    12    53    am
25    13    52    ar
26    13    14    ar
27    14    15    ar
28    14    65    1
29    15    16    ar
30    15    66    1
31    16    17    1
32    16    51    ar
33    17    50    1
34    17    18    1
35    18    19    1
36    18    67    1
37    18    68    1
38    19    20    1
39    19    69    1
40    19    70    1
41    20    21    1
42    20    49    1
43    21    48    ar
44    21    22    ar
45    22    23    ar
46    22    71    1
47    23    24    ar
48    23    72    1
49    24    25    1
50    24    47    ar
51    25    26    1
52    26    27    1
53    26    73    1
54    26    74    1
55    27    28    1
56    27    46    1
57    27    29    1
58    29    30    1
59    29    75    1
60    29    76    1
61    30    31    1
62    31    32    1
63    31    38    1
64    31    46    1
65    32    33    1
66    32    77    1
67    32    78    1
68    33    37    1
69    33    34    1
70    34    35    2
71    34    79    1
72    35    36    1
73    36    37    2
74    36    80    1
75    38    44    ar
76    38    39    ar
77    39    40    ar
78    39    81    1
79    40    41    ar
80    40    82    1
81    41    42    1
82    41    43    ar
83    43    44    ar
84    43    83    1
85    44    45    1
86    46    84    1
87    46    85    1
88    47    48    ar
89    47    86    1
90    48    87    1
91    49    50    1
92    49    88    1
93    49    89    1
94    50    90    1
95    50    91    1
96    51    52    ar
97    51    92    1
98    52    93    1
99    53    54    2
@<TRIPOS>SUBSTRUCTURE
1   ZINC000028639340 1     RESIDUE    1   A     ZIN   1
