@<TRIPOS>MOLECULE
ZINC000004340269
24   24    0    0    0
SMALL
USER_CHARGES
NO_NAME
@<TRIPOS>ATOM
1 N1       -0.0109     1.3296     0.1085 N.pl3  1 <0>      -0.7600
2 C2        0.0050     0.0004     0.0472 C.cat  1 <0>       0.7500
3 N3        1.1594    -0.6453    -0.0988 N.pl3  1 <0>      -0.7800
4 H4        1.1710    -1.6142    -0.1434 H      1 <0>       0.4500
5 H5        1.9894    -0.1470    -0.1606 H      1 <0>       0.4500
6 N6       -1.1708    -0.7056     0.1348 N.am   1 <0>      -0.6500
7 C7       -2.3500    -0.0530     0.1378 C.2    1 <0>       0.6300
8 O8       -2.3803     1.1487    -0.0447 O.2    1 <0>      -0.5100
9 C9       -3.6020    -0.7955     0.3623 C.ar   1 <0>      -0.1500
10 N10      -3.5816    -2.1251     0.4615 N.ar   1 <0>      -0.3300
11 C11      -4.6992    -2.7880     0.6618 C.ar   1 <0>       0.0300
12 Cl12     -4.6675    -4.5190     0.7902 Cl     1 <0>       0.0000
13 C13      -5.9154    -2.1019     0.7725 C.ar   1 <0>       0.4900
14 N14      -7.0882    -2.8052     0.9843 N.pl3  1 <0>      -0.7900
15 N15      -5.9452    -0.7792     0.6751 N.ar   1 <0>      -0.5600
16 C16      -4.8192    -0.1041     0.4782 C.ar   1 <0>       0.5000
17 N17      -4.8460     1.2746     0.3762 N.pl3  1 <0>      -0.8000
18 H18       0.8231     1.8249     0.1134 H      1 <0>       0.4400
19 H19      -0.8566     1.8034     0.1443 H      1 <0>       0.4500
20 H20      -1.1520    -1.6736     0.1944 H      1 <0>       0.4600
21 H21      -7.0676    -3.7723     1.0559 H      1 <0>       0.4300
22 H22      -7.9310    -2.3311     1.0611 H      1 <0>       0.4200
23 H23      -5.6752     1.7558     0.5238 H      1 <0>       0.4200
24 H24      -4.0356     1.7606     0.1571 H      1 <0>       0.4300
@<TRIPOS>BOND
1    1    2 ar
2    1   18 1
3    1   19 1
4    2    3 ar
5    2    6 1
6    3    4 1
7    3    5 1
8    6    7 am
9    6   20 1
10    7    8 2
11    7    9 1
12    9   16 ar
13    9   10 ar
14   10   11 ar
15   11   12 1
16   11   13 ar
17   13   14 1
18   13   15 ar
19   14   21 1
20   14   22 1
21   15   16 ar
22   16   17 1
23   17   23 1
24   17   24 1
