@<TRIPOS>MOLECULE
ZINC000003918453
57   60    0    0    0
SMALL
NO_CHARGES
@<TRIPOS>ATOM
1 C1             1.8102    -4.5045    -0.0081 C.3
2 C2             0.7492    -4.0068    -0.9917 C.3
3 H3             1.0411    -3.0299    -1.3773 H
4 O4             0.6330    -4.9313    -2.0751 O.3
5 C5            -0.5969    -3.8903    -0.2739 C.3
6 H6            -0.8635    -4.7923     0.2770 H
7 C7            -0.7487    -2.6170     0.5326 C.2
8 O8            -0.1677    -2.1491     1.4894 O.2
9 N9            -1.7932    -2.2032    -0.2380 N.am
10 C10           -3.0723    -2.1623     0.3419 C.2
11 C11           -3.4995    -1.1434     1.2178 C.2
12 O12           -4.7615    -1.1185     1.6462 O.co2
13 O13           -2.6413    -0.2050     1.6175 O.co2
14 C14           -3.8487    -3.2025    -0.0289 C.2
15 S15           -5.4994    -3.4950     0.5135 S.3
16 C16           -6.3724    -3.3958    -1.0690 C.3
17 H17           -5.8931    -4.0271    -1.8172 H
18 C18           -6.4681    -1.9294    -1.5591 C.3
19 N19           -7.6519    -1.9036    -2.4443 N.4
20 H20           -8.1354    -1.0243    -2.3392 H
21 H21           -7.3612    -2.0195    -3.4036 H
22 C22           -8.5475    -3.0111    -2.0630 C.3
23 H23           -8.6897    -3.6816    -2.9106 H
24 C24           -9.8777    -2.4633    -1.6140 C.2
25 O25           -9.9748    -1.2997    -1.2859 O.2
26 N26          -10.9594    -3.2665    -1.5771 N.am
27 C27          -12.1702    -2.7864    -1.0650 C.ar
28 C28          -13.0053    -3.6337    -0.3466 C.ar
29 C29          -14.2026    -3.1649     0.1622 C.ar
30 C30          -14.5769    -1.8527    -0.0398 C.ar
31 C31          -13.7447    -0.9921    -0.7609 C.ar
32 C32          -14.1419     0.4122    -0.9784 C.2
33 O33          -15.2009     0.8251    -0.5274 O.co2
34 O34          -13.4119     1.1633    -1.6097 O.co2
35 C35          -12.5336    -1.4646    -1.2697 C.ar
36 C36           -7.8689    -3.7698    -0.9025 C.3
37 C37           -3.0696    -4.0746    -0.9861 C.3
38 H38           -3.5896    -4.1494    -1.9412 H
39 C39           -2.8553    -5.4657    -0.3863 C.3
40 C40           -1.7262    -3.3553    -1.1642 C.3
41 H41           -1.4627    -3.1293    -2.1975 H
42 H42            2.7693    -4.5875    -0.5195 H
43 H43            1.8989    -3.7993     0.8183 H
44 H44            1.5184    -5.4814     0.3775 H
45 H45            0.3755    -5.8234    -1.8050 H
46 H46           -6.6111    -1.2556    -0.7144 H
47 H47           -5.5718    -1.6562    -2.1160 H
48 H48          -10.8987    -4.1772    -1.9054 H
49 H49          -12.7181    -4.6622    -0.1852 H
50 H50          -14.8471    -3.8286     0.7194 H
51 H51          -15.5131    -1.4906     0.3589 H
52 H52          -11.8858    -0.8047    -1.8275 H
53 H53           -8.0126    -4.8450    -1.0088 H
54 H54           -8.2476    -3.4224     0.0587 H
55 H55           -3.8130    -5.9808    -0.3121 H
56 H56           -2.1837    -6.0379    -1.0264 H
57 H57           -2.4165    -5.3695     0.6068 H
@<TRIPOS>BOND
1    1    2 1
2    1   42 1
3    1   43 1
4    1   44 1
5    2    3 1
6    2    4 1
7    2    5 1
8    4   45 1
9    5    6 1
10    5   40 1
11    5    7 1
12    7    8 2
13    7    9 am
14    9   40 1
15    9   10 1
16   10   11 1
17   10   14 2
18   11   12 ar
19   11   13 ar
20   14   15 1
21   14   37 1
22   15   16 1
23   16   17 1
24   16   36 1
25   16   18 1
26   18   19 1
27   18   46 1
28   18   47 1
29   19   20 1
30   19   21 1
31   19   22 1
32   22   23 1
33   22   24 1
34   22   36 1
35   24   25 2
36   24   26 am
37   26   27 1
38   26   48 1
39   27   35 ar
40   27   28 ar
41   28   29 ar
42   28   49 1
43   29   30 ar
44   29   50 1
45   30   31 ar
46   30   51 1
47   31   32 1
48   31   35 ar
49   32   33 ar
50   32   34 ar
51   35   52 1
52   36   53 1
53   36   54 1
54   37   38 1
55   37   39 1
56   37   40 1
57   39   55 1
58   39   56 1
59   39   57 1
60   40   41 1
