@<TRIPOS>MOLECULE
ZINC000012503099
43    45    1     0     0
SMALL
USER_CHARGES
@<TRIPOS>ATOM
1      C1     -0.0184    1.5028    0.0103 C.3      1 ZINC000012503099   -0.1200
2      C2      0.0021   -0.0041    0.0020 C.ar     1 ZINC000012503099   -0.0800
3      C3      0.0057   -0.6865   -1.2013 C.ar     1 ZINC000012503099   -0.1200
4      C4      0.0244   -2.0663   -1.2149 C.ar     1 ZINC000012503099   -0.0800
5      C5      0.0396   -2.7724   -0.0132 C.ar     1 ZINC000012503099   -0.0400
6      C6      0.0602   -4.2552   -0.0214 C.2      1 ZINC000012503099   -0.0400
7      C7      1.1223   -4.9125    0.4601 C.2      1 ZINC000012503099   -0.1000
8      C8      2.2970   -4.1456    1.0104 C.3      1 ZINC000012503099    0.0700
9      N9      2.5743   -4.5925    2.3820 N.3      1 ZINC000012503099   -0.5100
10     C10     3.1825   -5.9476    2.3877 C.3      1 ZINC000012503099    0.0300
11     C11     3.8677   -6.0229    3.7752 C.3      1 ZINC000012503099   -0.1200
12     C12     4.4098   -4.5885    3.9714 C.3      1 ZINC000012503099   -0.1300
13     C13     3.5589   -3.7059    3.0395 C.3      1 ZINC000012503099    0.0400
14     C14    -1.0954   -5.0096   -0.5628 C.ar     1 ZINC000012503099    0.1700
15     C15    -1.0726   -6.4029   -0.5624 C.ar     1 ZINC000012503099   -0.1700
16     C16    -2.1592   -7.0935   -1.0708 C.ar     1 ZINC000012503099   -0.0700
17     C17    -3.2341   -6.3673   -1.5634 C.ar     1 ZINC000012503099   -0.1800
18     C18    -3.1901   -4.9853   -1.5328 C.ar     1 ZINC000012503099    0.1000
19     N19    -2.1457   -4.3525   -1.0388 N.ar     1 ZINC000012503099   -0.4700
20     C20     0.0359   -2.0794    1.1962 C.ar     1 ZINC000012503099   -0.1000
21     C21     0.0229   -0.6994    1.1977 C.ar     1 ZINC000012503099   -0.1200
22     H22     1.0042    1.8801    0.0026 H        1 ZINC000012503099    0.0700
23     H23    -0.5455    1.8639   -0.8728 H        1 ZINC000012503099    0.0700
24     H24    -0.5286    1.8543    0.9071 H        1 ZINC000012503099    0.0700
25     H25    -0.0065   -0.1384   -2.1318 H        1 ZINC000012503099    0.1200
26     H26     0.0268   -2.5981   -2.1550 H        1 ZINC000012503099    0.1200
27     H27     1.1373   -5.9923    0.4541 H        1 ZINC000012503099    0.1200
28     H28     3.1724   -4.3245    0.3860 H        1 ZINC000012503099    0.0500
29     H29     2.0656   -3.0804    1.0151 H        1 ZINC000012503099    0.0900
30     H30     2.4136   -6.7147    2.2962 H        1 ZINC000012503099    0.0800
31     H31     3.9187   -6.0422    1.5894 H        1 ZINC000012503099    0.0500
32     H32     3.1427   -6.2706    4.5505 H        1 ZINC000012503099    0.0800
33     H33     4.6837   -6.7454    3.7637 H        1 ZINC000012503099    0.0700
34     H34     4.2845   -4.2751    5.0078 H        1 ZINC000012503099    0.0700
35     H35     5.4603   -4.5385    3.6846 H        1 ZINC000012503099    0.0700
36     H36     4.1952   -3.2367    2.2892 H        1 ZINC000012503099    0.0500
37     H37     3.0413   -2.9430    3.6210 H        1 ZINC000012503099    0.0800
38     H38    -0.2189   -6.9365   -0.1713 H        1 ZINC000012503099    0.1400
39     H39    -2.1700   -8.1733   -1.0842 H        1 ZINC000012503099    0.1400
40     H40    -4.0967   -6.8764   -1.9671 H        1 ZINC000012503099    0.1400
41     H41    -4.0250   -4.4172   -1.9158 H        1 ZINC000012503099    0.1600
42     H42     0.0474   -2.6214    2.1303 H        1 ZINC000012503099    0.1200
43     H43     0.0203   -0.1615    2.1341 H        1 ZINC000012503099    0.1200
@<TRIPOS>BOND
1     1     2     1
2     1     22    1
3     1     23    1
4     1     24    1
5     2     21    ar
6     2     3     ar
7     3     4     ar
8     3     25    1
9     4     5     ar
10    4     26    1
11    5     6     1
12    5     20    ar
13    6     7     2
14    6     14    1
15    7     8     1
16    7     27    1
17    8     9     1
18    8     28    1
19    8     29    1
20    9     13    1
21    9     10    1
22    10    11    1
23    10    30    1
24    10    31    1
25    11    12    1
26    11    32    1
27    11    33    1
28    12    13    1
29    12    34    1
30    12    35    1
31    13    36    1
32    13    37    1
33    14    19    ar
34    14    15    ar
35    15    16    ar
36    15    38    1
37    16    17    ar
38    16    39    1
39    17    18    ar
40    17    40    1
41    18    19    ar
42    18    41    1
43    20    21    ar
44    20    42    1
45    21    43    1
@<TRIPOS>SUBSTRUCTURE
1   ZINC000012503099 1     RESIDUE    1   A     ZIN   1
