@<TRIPOS>MOLECULE
ZINC000001530929
36    36    1     0     0
SMALL
USER_CHARGES
@<TRIPOS>ATOM
1      C1     -0.0157    1.3058    0.0092 C.2      1 ZINC000001530929   -0.2000
2      C2      0.0021   -0.0041    0.0020 C.2      1 ZINC000001530929   -0.1500
3      C3     -1.2926   -0.7753    0.0102 C.3      1 ZINC000001530929   -0.0700
4      C4     -1.3187   -1.7407   -1.1764 C.3      1 ZINC000001530929   -0.1500
5      C5     -2.6765   -2.4458   -1.1825 C.3      1 ZINC000001530929    0.0500
6      H6     -3.4701   -1.7052   -1.2822 H        1 ZINC000001530929    0.0900
7      C7     -2.7391   -3.4219   -2.3590 C.3      1 ZINC000001530929   -0.1500
8      C8     -2.8511   -3.1852    0.0784 C.1      1 ZINC000001530929   -0.1500
9      C9     -2.9904   -3.7748    1.0839 C.1      1 ZINC000001530929   -0.1800
10     C10    -3.1649   -4.5142    2.3447 C.3      1 ZINC000001530929    0.0000
11     C11    -4.5228   -5.2193    2.3387 C.3      1 ZINC000001530929   -0.1500
12     C12    -0.2470   -2.7911   -0.9540 C.2      1 ZINC000001530929    0.5300
13     O13    -0.2510   -3.4939    0.0338 O.2      1 ZINC000001530929   -0.5400
14     N14     0.7110   -2.9144   -1.8970 N.pl3    1 ZINC000001530929   -0.7100
15     C15     0.7293   -2.1470   -2.9928 C.2      1 ZINC000001530929    0.6600
16     O16     1.6281   -2.3256   -3.7904 O.2      1 ZINC000001530929   -0.5900
17     N17    -0.1702   -1.1975   -3.2746 N.am     1 ZINC000001530929   -0.5900
18     C18    -0.0287   -0.4302   -4.5146 C.3      1 ZINC000001530929    0.0700
19     C19    -1.2044   -0.9256   -2.4507 C.2      1 ZINC000001530929    0.5500
20     O20    -2.0116   -0.0619   -2.7190 O.2      1 ZINC000001530929   -0.5300
21     H21     0.9122    1.8585    0.0033 H        1 ZINC000001530929    0.0900
22     H22    -0.9582    1.8330    0.0166 H        1 ZINC000001530929    0.0900
23     H23     0.9446   -0.5313   -0.0098 H        1 ZINC000001530929    0.1100
24     H24    -1.3737   -1.3393    0.9394 H        1 ZINC000001530929    0.0900
25     H25    -2.1295   -0.0812   -0.0676 H        1 ZINC000001530929    0.0700
26     H26    -3.7064   -3.9243   -2.3633 H        1 ZINC000001530929    0.0600
27     H27    -2.6098   -2.8745   -3.2926 H        1 ZINC000001530929    0.0600
28     H28    -1.9456   -4.1625   -2.2592 H        1 ZINC000001530929    0.0700
29     H29    -2.3714   -5.2548    2.4445 H        1 ZINC000001530929    0.0800
30     H30    -3.1204   -3.8188    3.1829 H        1 ZINC000001530929    0.0800
31     H31    -4.6521   -5.7668    3.2723 H        1 ZINC000001530929    0.0600
32     H32    -5.3163   -4.4787    2.2389 H        1 ZINC000001530929    0.0500
33     H33    -4.5673   -5.9147    1.5005 H        1 ZINC000001530929    0.0600
34     H34     0.8514   -0.7754   -5.0570 H        1 ZINC000001530929    0.0900
35     H35    -0.9152   -0.5720   -5.1327 H        1 ZINC000001530929    0.0600
36     H36     0.0829    0.6276   -4.2765 H        1 ZINC000001530929    0.0600
@<TRIPOS>BOND
1     1     2     2
2     1     21    1
3     1     22    1
4     2     3     1
5     2     23    1
6     3     4     1
7     3     24    1
8     3     25    1
9     4     19    1
10    4     5     1
11    4     12    1
12    5     6     1
13    5     7     1
14    5     8     1
15    7     26    1
16    7     27    1
17    7     28    1
18    8     9     3
19    9     10    1
20    10    11    1
21    10    29    1
22    10    30    1
23    11    31    1
24    11    32    1
25    11    33    1
26    12    13    2
27    12    14    1
28    14    15    1
29    15    16    2
30    15    17    am
31    17    18    1
32    17    19    am
33    18    34    1
34    18    35    1
35    18    36    1
36    19    20    2
@<TRIPOS>SUBSTRUCTURE
1   ZINC000001530929 1     RESIDUE    1   A     ZIN   1
