@<TRIPOS>MOLECULE
ZINC000016929327
28    29    1     0     0
SMALL
USER_CHARGES
@<TRIPOS>ATOM
1      N1     -0.0165    1.3684    0.0096 N.pl3    1 ZINC000016929327   -0.7900
2      C2      0.0021   -0.0041    0.0020 C.2      1 ZINC000016929327    0.6300
3      N3     -1.1394   -0.6782    0.0038 N.2      1 ZINC000016929327   -0.6400
4      C4     -1.1259   -2.0141   -0.0035 C.2      1 ZINC000016929327    0.6600
5      O5     -2.1732   -2.6383   -0.0023 O.2      1 ZINC000016929327   -0.5200
6      N6      0.0541   -2.6679   -0.0127 N.am     1 ZINC000016929327   -0.5500
7      C7      0.0853   -4.1325   -0.0213 C.3      1 ZINC000016929327    0.2800
8      H8     -0.9230   -4.5334    0.0826 H        1 ZINC000016929327    0.1300
9      C9      0.7379   -4.6489   -1.3228 C.3      1 ZINC000016929327   -0.2000
10     C10     1.5483   -5.8846   -0.8717 C.3      1 ZINC000016929327    0.0800
11     H11     2.6100   -5.7386   -1.0710 H        1 ZINC000016929327    0.0900
12     O12     1.0741   -7.0616   -1.5289 O.3      1 ZINC000016929327   -0.5500
13     C13     1.2895   -5.9686    0.6489 C.3      1 ZINC000016929327    0.0900
14     H14     0.4667   -6.6527    0.8566 H        1 ZINC000016929327    0.1000
15     C15     2.5548   -6.4216    1.3803 C.3      1 ZINC000016929327    0.0900
16     O16     2.2634   -6.6049    2.7672 O.3      1 ZINC000016929327   -0.5700
17     O17     0.9333   -4.6236    1.0396 O.3      1 ZINC000016929327   -0.3600
18     C18     1.2070   -1.9634   -0.0144 C.2      1 ZINC000016929327    0.4600
19     N19     1.1744   -0.6542   -0.0127 N.2      1 ZINC000016929327   -0.6000
20     H20     0.8168    1.8648    0.0043 H        1 ZINC000016929327    0.4200
21     H21    -0.8631    1.8419    0.0162 H        1 ZINC000016929327    0.4200
22     H22    -0.0261   -4.9361   -2.0452 H        1 ZINC000016929327    0.1100
23     H23     1.3988   -3.8920   -1.7450 H        1 ZINC000016929327    0.0900
24     H24     1.1587   -7.0356   -2.4918 H        1 ZINC000016929327    0.3900
25     H25     2.9033   -7.3626    0.9548 H        1 ZINC000016929327    0.0700
26     H26     3.3299   -5.6633    1.2690 H        1 ZINC000016929327    0.0600
27     H27     3.0218   -6.8926    3.2937 H        1 ZINC000016929327    0.3900
28     H28     2.1554   -2.4800   -0.0214 H        1 ZINC000016929327    0.2200
@<TRIPOS>BOND
1     1     2     1
2     1     20    1
3     1     21    1
4     2     19    1
5     2     3     2
6     3     4     1
7     4     5     2
8     4     6     am
9     6     7     1
10    6     18    1
11    7     8     1
12    7     17    1
13    7     9     1
14    9     10    1
15    9     22    1
16    9     23    1
17    10    11    1
18    10    12    1
19    10    13    1
20    12    24    1
21    13    14    1
22    13    15    1
23    13    17    1
24    15    16    1
25    15    25    1
26    15    26    1
27    16    27    1
28    18    19    2
29    18    28    1
@<TRIPOS>SUBSTRUCTURE
1   ZINC000016929327 1     RESIDUE    1   A     ZIN   1
