@<TRIPOS>MOLECULE
ZINC000000000347
47    50    1     0     0
SMALL
USER_CHARGES
@<TRIPOS>ATOM
1      C1     -0.0178    1.4608    0.0101 C.3      1 ZINC000000000347    0.0900
2      N2      0.0021   -0.0041    0.0020 N.pl3    1 ZINC000000000347   -0.3200
3      N3      0.0074   -0.7230   -1.0616 N.2      1 ZINC000000000347   -0.2100
4      C4      0.0268   -2.0094   -0.7862 C.2      1 ZINC000000000347   -0.0100
5      C5      0.0385   -3.1201   -1.7550 C.2      1 ZINC000000000347    0.6100
6      O6      0.0569   -4.2705   -1.3610 O.2      1 ZINC000000000347   -0.5300
7      N7      0.0287   -2.8608   -3.0775 N.am     1 ZINC000000000347   -0.7200
8      C8      0.0403   -3.9712   -4.0461 C.3      1 ZINC000000000347    0.1600
9      C9     -1.3885   -4.4660   -4.2413 C.3      1 ZINC000000000347   -0.1600
10     C10    -1.5024   -5.4340   -5.4140 C.3      1 ZINC000000000347    0.1200
11     H11    -1.9376   -6.3733   -5.0656 H        1 ZINC000000000347    0.0800
12     C12    -2.4358   -4.8268   -6.4726 C.3      1 ZINC000000000347   -0.1100
13     C13    -1.8121   -3.5442   -7.0248 C.3      1 ZINC000000000347   -0.1200
14     C14    -0.4177   -3.8328   -7.5841 C.3      1 ZINC000000000347   -0.1100
15     C15     0.4482   -4.4755   -6.4892 C.3      1 ZINC000000000347    0.1200
16     H16     1.4222   -4.7220   -6.9184 H        1 ZINC000000000347    0.0800
17     C17     0.6374   -3.4713   -5.3570 C.3      1 ZINC000000000347   -0.1600
18     N18    -0.2120   -5.6874   -6.0335 N.3      1 ZINC000000000347   -0.5900
19     C19     0.6248   -6.6829   -5.4027 C.3      1 ZINC000000000347    0.0600
20     C20     0.0351   -2.1189    0.6788 C.ar     1 ZINC000000000347   -0.1100
21     C21     0.0541   -3.1654    1.5955 C.ar     1 ZINC000000000347   -0.0400
22     C22     0.0563   -2.8913    2.9350 C.ar     1 ZINC000000000347   -0.1400
23     C23     0.0394   -1.5781    3.3865 C.ar     1 ZINC000000000347   -0.0800
24     C24     0.0200   -0.5277    2.4961 C.ar     1 ZINC000000000347   -0.1200
25     C25     0.0234   -0.7839    1.1289 C.ar     1 ZINC000000000347    0.0600
26     H26     1.0048    1.8381    0.0023 H        1 ZINC000000000347    0.0800
27     H27    -0.5450    1.8219   -0.8730 H        1 ZINC000000000347    0.1000
28     H28    -0.5280    1.8123    0.9069 H        1 ZINC000000000347    0.0900
29     H29     0.0140   -1.9432   -3.3918 H        1 ZINC000000000347    0.4000
30     H30     0.6606   -4.7659   -3.6287 H        1 ZINC000000000347    0.0900
31     H31    -1.7212   -4.9718   -3.3276 H        1 ZINC000000000347    0.0700
32     H32    -2.0496   -3.6109   -4.4111 H        1 ZINC000000000347    0.0700
33     H33    -2.5756   -5.5451   -7.2792 H        1 ZINC000000000347    0.0700
34     H34    -3.3966   -4.5996   -6.0126 H        1 ZINC000000000347    0.0600
35     H35    -2.4459   -3.1501   -7.8236 H        1 ZINC000000000347    0.0600
36     H36    -1.7422   -2.7989   -6.2320 H        1 ZINC000000000347    0.0600
37     H37    -0.4943   -4.5188   -8.4265 H        1 ZINC000000000347    0.0700
38     H38     0.0480   -2.9033   -7.9079 H        1 ZINC000000000347    0.0700
39     H39     0.1687   -2.5220   -5.6319 H        1 ZINC000000000347    0.0700
40     H40     1.7092   -3.2895   -5.2173 H        1 ZINC000000000347    0.0700
41     H41     1.0982   -6.2531   -4.5198 H        1 ZINC000000000347    0.0200
42     H42     0.0147   -7.5369   -5.1085 H        1 ZINC000000000347    0.0700
43     H43     1.3927   -7.0093   -6.1040 H        1 ZINC000000000347    0.0600
44     H44     0.0666   -4.1888    1.2508 H        1 ZINC000000000347    0.1400
45     H45     0.0711   -3.7026    3.6478 H        1 ZINC000000000347    0.1300
46     H46     0.0411   -1.3783    4.4478 H        1 ZINC000000000347    0.1300
47     H47     0.0066    0.4899    2.8576 H        1 ZINC000000000347    0.1300
@<TRIPOS>BOND
1     1     2     1
2     1     26    1
3     1     27    1
4     1     28    1
5     2     25    1
6     2     3     1
7     3     4     2
8     4     5     1
9     4     20    1
10    5     6     2
11    5     7     am
12    7     8     1
13    7     29    1
14    8     17    1
15    8     9     1
16    8     30    1
17    9     10    1
18    9     31    1
19    9     32    1
20    10    11    1
21    10    18    1
22    10    12    1
23    12    13    1
24    12    33    1
25    12    34    1
26    13    14    1
27    13    35    1
28    13    36    1
29    14    15    1
30    14    37    1
31    14    38    1
32    15    16    1
33    15    17    1
34    15    18    1
35    17    39    1
36    17    40    1
37    18    19    1
38    19    41    1
39    19    42    1
40    19    43    1
41    20    25    ar
42    20    21    ar
43    21    22    ar
44    21    44    1
45    22    23    ar
46    22    45    1
47    23    24    ar
48    23    46    1
49    24    25    ar
50    24    47    1
@<TRIPOS>SUBSTRUCTURE
1   ZINC000000000347 1     RESIDUE    1   A     ZIN   1
