@<TRIPOS>MOLECULE
ZINC000085540215
56    56    1     0     0
SMALL
USER_CHARGES
@<TRIPOS>ATOM
1      C1      0.6838    1.2865    0.0426 C.3      1 ZINC000085540215   -0.1800
2      C2      0.3624   -0.1858    0.0337 C.2      1 ZINC000085540215    0.5400
3      O3      0.8797   -0.9244    0.8449 O.2      1 ZINC000085540215   -0.5000
4      N4     -0.4997   -0.6819   -0.8757 N.am     1 ZINC000085540215   -0.5700
5      C5     -0.8121   -2.1132   -0.8843 C.3      1 ZINC000085540215    0.0800
6      C6      0.1435   -2.8380   -1.8342 C.3      1 ZINC000085540215    0.0900
7      H7      0.0775   -2.3917   -2.8264 H        1 ZINC000085540215    0.1100
8      O8      1.4814   -2.7190   -1.3463 O.3      1 ZINC000085540215   -0.5300
9      C9     -0.2406   -4.3169   -1.9137 C.3      1 ZINC000085540215    0.0500
10     O10     0.5764   -4.9696   -2.8876 O.3      1 ZINC000085540215   -0.5600
11     C11    -1.0970    0.1708   -1.8124 C.ar     1 ZINC000085540215    0.2100
12     C12    -2.3710    0.6687   -1.5813 C.ar     1 ZINC000085540215   -0.0700
13     I13    -3.3976    0.1445    0.1681 I        1 ZINC000085540215    0.0300
14     C14    -2.9701    1.5197   -2.5135 C.ar     1 ZINC000085540215   -0.0400
15     C15    -4.3270    2.0499   -2.2661 C.2      1 ZINC000085540215    0.5500
16     O16    -4.4700    3.1004   -1.6713 O.2      1 ZINC000085540215   -0.4900
17     N17    -5.4061    1.3689   -2.7000 N.am     1 ZINC000085540215   -0.7000
18     C18    -6.7513    1.8945   -2.4548 C.3      1 ZINC000085540215    0.1200
19     C19    -7.7885    0.9370   -3.0450 C.3      1 ZINC000085540215    0.0600
20     O20    -7.7369   -0.3095   -2.3482 O.3      1 ZINC000085540215   -0.5700
21     C21    -2.2860    1.8683   -3.6770 C.ar     1 ZINC000085540215   -0.0500
22     I22    -3.1792    3.1445   -5.0779 I        1 ZINC000085540215    0.0300
23     C23    -1.0055    1.3659   -3.9059 C.ar     1 ZINC000085540215   -0.0400
24     C24    -0.2761    1.7329   -5.1375 C.2      1 ZINC000085540215    0.5500
25     O25     0.4387    2.7161   -5.1504 O.2      1 ZINC000085540215   -0.4900
26     N26    -0.4034    0.9776   -6.2465 N.am     1 ZINC000085540215   -0.7000
27     C27     0.3198    1.3415   -7.4675 C.3      1 ZINC000085540215    0.0900
28     C28     0.0032    0.3279   -8.5690 C.3      1 ZINC000085540215    0.1000
29     H29    -1.0686    0.3297   -8.7673 H        1 ZINC000085540215    0.1100
30     O30     0.4072   -0.9762   -8.1467 O.3      1 ZINC000085540215   -0.5500
31     C31     0.7584    0.7079   -9.8441 C.3      1 ZINC000085540215    0.0500
32     O32     0.3737   -0.1690  -10.9048 O.3      1 ZINC000085540215   -0.5600
33     C33    -0.4108    0.5202   -2.9667 C.ar     1 ZINC000085540215   -0.0800
34     I34     1.5129   -0.2354   -3.3093 I        1 ZINC000085540215    0.0500
35     H35     1.7528    1.4260   -0.1183 H        1 ZINC000085540215    0.1100
36     H36     0.1286    1.7843   -0.7524 H        1 ZINC000085540215    0.0700
37     H37     0.4023    1.7140    1.0050 H        1 ZINC000085540215    0.1000
38     H38    -0.6988   -2.5159    0.1222 H        1 ZINC000085540215    0.1100
39     H39    -1.8387   -2.2590   -1.2206 H        1 ZINC000085540215    0.0900
40     H40     1.6139   -3.0959   -0.4658 H        1 ZINC000085540215    0.3700
41     H41    -0.0896   -4.7843   -0.9406 H        1 ZINC000085540215    0.0500
42     H42    -1.2885   -4.4052   -2.2005 H        1 ZINC000085540215    0.0500
43     H43     0.3874   -5.9123   -2.9914 H        1 ZINC000085540215    0.3800
44     H44    -5.2920    0.5306   -3.1746 H        1 ZINC000085540215    0.4100
45     H45    -6.9141    1.9897   -1.3812 H        1 ZINC000085540215    0.0800
46     H46    -6.8506    2.8727   -2.9254 H        1 ZINC000085540215    0.0900
47     H47    -8.7833    1.3702   -2.9415 H        1 ZINC000085540215    0.0700
48     H48    -7.5719    0.7725   -4.1005 H        1 ZINC000085540215    0.0600
49     H49    -8.3691   -0.9666   -2.6702 H        1 ZINC000085540215    0.3800
50     H50    -0.9737    0.1931   -6.2361 H        1 ZINC000085540215    0.4100
51     H51     0.0116    2.3362   -7.7895 H        1 ZINC000085540215    0.0900
52     H52     1.3916    1.3397   -7.2692 H        1 ZINC000085540215    0.0800
53     H53     1.3515   -1.0516   -7.9523 H        1 ZINC000085540215    0.3800
54     H54     0.5173    1.7354  -10.1167 H        1 ZINC000085540215    0.0600
55     H55     1.8310    0.6200   -9.6710 H        1 ZINC000085540215    0.0500
56     H56     0.8144    0.0140  -11.7459 H        1 ZINC000085540215    0.3800
@<TRIPOS>BOND
1     1     2     1
2     1     35    1
3     1     36    1
4     1     37    1
5     2     3     2
6     2     4     am
7     4     5     1
8     4     11    1
9     5     6     1
10    5     38    1
11    5     39    1
12    6     7     1
13    6     8     1
14    6     9     1
15    8     40    1
16    9     10    1
17    9     41    1
18    9     42    1
19    10    43    1
20    11    33    ar
21    11    12    ar
22    12    13    1
23    12    14    ar
24    14    15    1
25    14    21    ar
26    15    16    2
27    15    17    am
28    17    18    1
29    17    44    1
30    18    19    1
31    18    45    1
32    18    46    1
33    19    20    1
34    19    47    1
35    19    48    1
36    20    49    1
37    21    22    1
38    21    23    ar
39    23    24    1
40    23    33    ar
41    24    25    2
42    24    26    am
43    26    27    1
44    26    50    1
45    27    28    1
46    27    51    1
47    27    52    1
48    28    29    1
49    28    30    1
50    28    31    1
51    30    53    1
52    31    32    1
53    31    54    1
54    31    55    1
55    32    56    1
56    33    34    1
@<TRIPOS>SUBSTRUCTURE
1   ZINC000085540215 1     RESIDUE    1   A     ZIN   1
