@<TRIPOS>MOLECULE
ZINC000000607939
48    50    1     0     0
SMALL
USER_CHARGES
@<TRIPOS>ATOM
1      C1      2.1185    1.3908   -0.6375 C.3      1 ZINC000000607939    0.0300
2      O2      2.0993   -0.0321   -0.7678 O.3      1 ZINC000000607939   -0.3500
3      C3      0.8932   -0.6166   -0.9255 C.2      1 ZINC000000607939    0.5300
4      O4     -0.1145    0.0650   -0.9517 O.2      1 ZINC000000607939   -0.4900
5      C5      0.8005   -2.0213   -1.0605 C.2      1 ZINC000000607939   -0.2300
6      C6      1.1717   -2.5967   -2.2173 C.2      1 ZINC000000607939    0.1900
7      C7      1.6865   -1.7384   -3.3439 C.3      1 ZINC000000607939   -0.1300
8      N8      1.0882   -3.9521   -2.3841 N.pl3    1 ZINC000000607939   -0.6300
9      C9      0.3088   -4.7038   -1.5477 C.2      1 ZINC000000607939    0.2400
10     C10    -0.0976   -6.0953   -1.9596 C.3      1 ZINC000000607939   -0.1200
11     C11    -0.0985   -4.2165   -0.3630 C.2      1 ZINC000000607939   -0.2600
12     C12    -0.9093   -5.0186    0.4730 C.2      1 ZINC000000607939    0.5200
13     O13    -1.2310   -6.1369    0.1173 O.2      1 ZINC000000607939   -0.5200
14     O14    -1.3264   -4.5437    1.6654 O.3      1 ZINC000000607939   -0.3400
15     C15    -2.1427   -5.4079    2.4583 C.3      1 ZINC000000607939    0.0800
16     C16    -1.9131   -5.1078    3.9410 C.3      1 ZINC000000607939   -0.1500
17     C17    -3.6153   -5.1768    2.1133 C.3      1 ZINC000000607939   -0.1700
18     C18     0.2950   -2.8388    0.0942 C.3      1 ZINC000000607939    0.0900
19     H19    -0.5740   -2.3420    0.5257 H        1 ZINC000000607939    0.1000
20     C20     1.3724   -2.9525    1.1418 C.ar     1 ZINC000000607939   -0.0200
21     C21     2.5557   -3.5443    0.8448 C.ar     1 ZINC000000607939   -0.0800
22     C22     3.5805   -3.6684    1.7916 C.ar     1 ZINC000000607939   -0.0800
23     C23     3.4469   -3.2038    3.0585 C.ar     1 ZINC000000607939   -0.0700
24     C24     2.2454   -2.5766    3.4416 C.ar     1 ZINC000000607939    0.0200
25     N25     1.7261   -2.0157    4.5056 N.2      1 ZINC000000607939   -0.3500
26     O26     0.6044   -1.6300    4.2439 O.3      1 ZINC000000607939    0.3800
27     N27     0.2164   -1.8328    3.1108 N.2      1 ZINC000000607939   -0.3300
28     C28     1.1617   -2.4399    2.4366 C.ar     1 ZINC000000607939    0.0300
29     H29     1.6884    1.8433   -1.5311 H        1 ZINC000000607939    0.0600
30     H30     1.5347    1.6837    0.2351 H        1 ZINC000000607939    0.0600
31     H31     3.1471    1.7308   -0.5173 H        1 ZINC000000607939    0.1000
32     H32     2.7612   -1.5963   -3.2305 H        1 ZINC000000607939    0.1000
33     H33     1.4832   -2.2284   -4.2961 H        1 ZINC000000607939    0.0900
34     H34     1.1874   -0.7697   -3.3200 H        1 ZINC000000607939    0.0900
35     H35     1.5836   -4.3820   -3.0988 H        1 ZINC000000607939    0.4200
36     H36     0.3202   -6.3204   -2.9408 H        1 ZINC000000607939    0.0600
37     H37     0.2779   -6.8140   -1.2312 H        1 ZINC000000607939    0.1000
38     H38    -1.1849   -6.1579   -2.0046 H        1 ZINC000000607939    0.1100
39     H39    -1.8799   -6.4456    2.2527 H        1 ZINC000000607939    0.0800
40     H40    -2.1759   -4.0702    4.1466 H        1 ZINC000000607939    0.0700
41     H41    -2.5357   -5.7671    4.5458 H        1 ZINC000000607939    0.0800
42     H42    -0.8640   -5.2725    4.1867 H        1 ZINC000000607939    0.0600
43     H43    -3.8781   -4.1391    2.3190 H        1 ZINC000000607939    0.0700
44     H44    -3.7788   -5.3906    1.0571 H        1 ZINC000000607939    0.0600
45     H45    -4.2379   -5.8360    2.7181 H        1 ZINC000000607939    0.0700
46     H46     2.7126   -3.9316   -0.1510 H        1 ZINC000000607939    0.1300
47     H47     4.5041   -4.1487    1.5042 H        1 ZINC000000607939    0.1400
48     H48     4.2542   -3.3140    3.7673 H        1 ZINC000000607939    0.1500
@<TRIPOS>BOND
1     1     2     1
2     1     29    1
3     1     30    1
4     1     31    1
5     2     3     1
6     3     4     2
7     3     5     1
8     5     18    1
9     5     6     2
10    6     7     1
11    6     8     1
12    7     32    1
13    7     33    1
14    7     34    1
15    8     9     1
16    8     35    1
17    9     10    1
18    9     11    2
19    10    36    1
20    10    37    1
21    10    38    1
22    11    12    1
23    11    18    1
24    12    13    2
25    12    14    1
26    14    15    1
27    15    16    1
28    15    17    1
29    15    39    1
30    16    40    1
31    16    41    1
32    16    42    1
33    17    43    1
34    17    44    1
35    17    45    1
36    18    19    1
37    18    20    1
38    20    28    ar
39    20    21    ar
40    21    22    ar
41    21    46    1
42    22    23    ar
43    22    47    1
44    23    24    ar
45    23    48    1
46    24    28    ar
47    24    25    2
48    25    26    1
49    26    27    1
50    27    28    2
@<TRIPOS>SUBSTRUCTURE
1   ZINC000000607939 1     RESIDUE    1   A     ZIN   1
