@<TRIPOS>MOLECULE
ZINC000000000931
38    41    1     0     0
SMALL
USER_CHARGES
@<TRIPOS>ATOM
1      Cl1     0.0896   -0.0464   -0.1426 Cl       1 ZINC000000000931   -0.0500
2      C2      0.0331    1.6879   -0.0900 C.ar     1 ZINC000000000931   -0.0500
3      C3     -1.1889    2.3378   -0.0675 C.ar     1 ZINC000000000931   -0.0700
4      C4     -1.2429    3.7197   -0.0370 C.ar     1 ZINC000000000931   -0.1200
5      C5     -0.0732    4.4609   -0.0297 C.ar     1 ZINC000000000931    0.1400
6      O6     -0.1315    5.8151   -0.0622 O.3      1 ZINC000000000931   -0.2600
7      C7      0.4060    6.4486   -1.1362 C.ar     1 ZINC000000000931    0.0300
8      C8     -0.4198    7.1999   -1.9552 C.ar     1 ZINC000000000931   -0.1000
9      C9      0.0940    7.8304   -3.0755 C.ar     1 ZINC000000000931   -0.1200
10     C10     1.4358    7.7122   -3.3843 C.ar     1 ZINC000000000931   -0.1000
11     C11     2.2734    6.9770   -2.5692 C.ar     1 ZINC000000000931   -0.1100
12     C12     1.7685    6.3485   -1.4271 C.ar     1 ZINC000000000931    0.1300
13     N13     2.6312    5.6907   -0.6023 N.2      1 ZINC000000000931   -0.5900
14     C14     2.4168    4.5818    0.0168 C.2      1 ZINC000000000931    0.5000
15     N15     3.4421    4.0785    0.7850 N.pl3    1 ZINC000000000931   -0.5900
16     C16     3.2367    2.8984    1.6385 C.3      1 ZINC000000000931    0.1100
17     C17     3.7245    3.2299    3.0529 C.3      1 ZINC000000000931    0.0400
18     N18     5.1090    3.7165    2.9885 N.3      1 ZINC000000000931   -0.6900
19     C19     5.1994    4.9667    2.2224 C.3      1 ZINC000000000931    0.0400
20     C20     4.7737    4.7028    0.7694 C.3      1 ZINC000000000931    0.1300
21     C21     1.1644    3.8093   -0.0302 C.ar     1 ZINC000000000931   -0.1400
22     C22     1.2077    2.4143   -0.0651 C.ar     1 ZINC000000000931   -0.0600
23     H23    -2.1036    1.7637   -0.0740 H        1 ZINC000000000931    0.1500
24     H24    -2.1991    4.2214   -0.0192 H        1 ZINC000000000931    0.1500
25     H25    -1.4695    7.2943   -1.7191 H        1 ZINC000000000931    0.1300
26     H26    -0.5553    8.4156   -3.7098 H        1 ZINC000000000931    0.1300
27     H27     1.8303    8.1958   -4.2657 H        1 ZINC000000000931    0.1300
28     H28     3.3212    6.8870   -2.8148 H        1 ZINC000000000931    0.1300
29     H29     2.1766    2.6467    1.6664 H        1 ZINC000000000931    0.0900
30     H30     3.8054    2.0569    1.2429 H        1 ZINC000000000931    0.0800
31     H31     3.0876    4.0013    3.4858 H        1 ZINC000000000931    0.0400
32     H32     3.6824    2.3335    3.6716 H        1 ZINC000000000931    0.0900
33     H33     5.4957    3.8305    3.9134 H        1 ZINC000000000931    0.3500
34     H34     4.5419    5.7139    2.6669 H        1 ZINC000000000931    0.0400
35     H35     6.2269    5.3299    2.2388 H        1 ZINC000000000931    0.0900
36     H36     5.4919    4.0355    0.2929 H        1 ZINC000000000931    0.0700
37     H37     4.7280    5.6455    0.2242 H        1 ZINC000000000931    0.1100
38     H38     2.1591    1.9034   -0.0761 H        1 ZINC000000000931    0.1500
@<TRIPOS>BOND
1     1     2     1
2     2     22    ar
3     2     3     ar
4     3     4     ar
5     3     23    1
6     4     5     ar
7     4     24    1
8     5     21    ar
9     5     6     1
10    6     7     1
11    7     12    ar
12    7     8     ar
13    8     9     ar
14    8     25    1
15    9     10    ar
16    9     26    1
17    10    11    ar
18    10    27    1
19    11    12    ar
20    11    28    1
21    12    13    1
22    13    14    2
23    14    15    1
24    14    21    1
25    15    20    1
26    15    16    1
27    16    17    1
28    16    29    1
29    16    30    1
30    17    18    1
31    17    31    1
32    17    32    1
33    18    19    1
34    18    33    1
35    19    20    1
36    19    34    1
37    19    35    1
38    20    36    1
39    20    37    1
40    21    22    ar
41    22    38    1
@<TRIPOS>SUBSTRUCTURE
1   ZINC000000000931 1     RESIDUE    1   A     ZIN   1
