@<TRIPOS>MOLECULE
ZINC000000000346
51    53    1     0     0
SMALL
USER_CHARGES
@<TRIPOS>ATOM
1      C1     -0.0178    1.4648    0.0101 C.3      1 ZINC000000000346   -0.0500
2      N2      0.0021   -0.0041    0.0020 N.4      1 ZINC000000000346   -0.2700
3      C3     -1.3740   -0.5182    0.0002 C.3      1 ZINC000000000346   -0.0400
4      C4      0.7097   -0.4841   -1.1991 C.3      1 ZINC000000000346   -0.0100
5      C5      1.9322   -1.2931   -0.7168 C.3      1 ZINC000000000346   -0.1600
6      C6      2.1672   -0.7497    0.7171 C.3      1 ZINC000000000346    0.0700
7      H7      2.7372    0.1791    0.6942 H        1 ZINC000000000346    0.1200
8      O8      2.8271   -1.7413    1.5475 O.3      1 ZINC000000000346   -0.3200
9      C9      4.1686   -1.7112    1.5830 C.2      1 ZINC000000000346    0.4500
10     O10     4.7715   -0.8836    0.9415 O.2      1 ZINC000000000346   -0.4700
11     C11     4.9227   -2.7096    2.4230 C.3      1 ZINC000000000346    0.2100
12     O12     4.1796   -2.9906    3.6107 O.3      1 ZINC000000000346   -0.5200
13     C13     6.2673   -2.1394    2.7948 C.ar     1 ZINC000000000346   -0.1200
14     C14     7.3580   -2.3478    1.9715 C.ar     1 ZINC000000000346   -0.0900
15     C15     8.5913   -1.8248    2.3125 C.ar     1 ZINC000000000346   -0.1200
16     C16     8.7338   -1.0930    3.4766 C.ar     1 ZINC000000000346   -0.1000
17     C17     7.6428   -0.8838    4.2994 C.ar     1 ZINC000000000346   -0.1100
18     C18     6.4086   -1.4032    3.9562 C.ar     1 ZINC000000000346   -0.1100
19     C19     5.1191   -4.0011    1.6266 C.3      1 ZINC000000000346   -0.0800
20     C20     5.7757   -5.0893    2.5118 C.3      1 ZINC000000000346   -0.1100
21     C21     5.3481   -6.4032    1.8119 C.3      1 ZINC000000000346   -0.1300
22     C22     3.9009   -6.1328    1.3512 C.3      1 ZINC000000000346   -0.1200
23     C23     3.7553   -4.6055    1.2333 C.3      1 ZINC000000000346   -0.1200
24     C24     0.7163   -0.4986    1.1983 C.3      1 ZINC000000000346    0.0000
25     H25     1.0047    1.8421    0.0024 H        1 ZINC000000000346    0.1200
26     H26    -0.5450    1.8259   -0.8730 H        1 ZINC000000000346    0.1300
27     H27    -0.5280    1.8163    0.9069 H        1 ZINC000000000346    0.1200
28     H28    -1.8992   -0.1476   -0.8802 H        1 ZINC000000000346    0.1300
29     H29    -1.3547   -1.6079   -0.0202 H        1 ZINC000000000346    0.1200
30     H30    -1.8892   -0.1807    0.8995 H        1 ZINC000000000346    0.1200
31     H31     0.0508   -1.1230   -1.7872 H        1 ZINC000000000346    0.1400
32     H32     1.0396    0.3641   -1.7990 H        1 ZINC000000000346    0.1400
33     H33     1.7040   -2.3586   -0.6926 H        1 ZINC000000000346    0.1100
34     H34     2.7978   -1.0975   -1.3498 H        1 ZINC000000000346    0.1200
35     H35     4.0173   -2.2156    4.1657 H        1 ZINC000000000346    0.3800
36     H36     7.2467   -2.9195    1.0620 H        1 ZINC000000000346    0.1300
37     H37     9.4436   -1.9882    1.6697 H        1 ZINC000000000346    0.1300
38     H38     9.6975   -0.6850    3.7434 H        1 ZINC000000000346    0.1300
39     H39     7.7542   -0.3124    5.2091 H        1 ZINC000000000346    0.1300
40     H40     5.5563   -1.2398    4.5990 H        1 ZINC000000000346    0.1200
41     H41     5.7231   -3.8128    0.7390 H        1 ZINC000000000346    0.1000
42     H42     6.8608   -4.9860    2.5098 H        1 ZINC000000000346    0.0700
43     H43     5.3846   -5.0482    3.5284 H        1 ZINC000000000346    0.0900
44     H44     5.9901   -6.6051    0.9544 H        1 ZINC000000000346    0.0700
45     H45     5.3755   -7.2361    2.5145 H        1 ZINC000000000346    0.0700
46     H46     3.7238   -6.6006    0.3827 H        1 ZINC000000000346    0.0600
47     H47     3.1963   -6.5194    2.0875 H        1 ZINC000000000346    0.0700
48     H48     2.9799   -4.2509    1.9125 H        1 ZINC000000000346    0.0800
49     H49     3.5075   -4.3321    0.2077 H        1 ZINC000000000346    0.0600
50     H50     0.7029    0.2542    1.9865 H        1 ZINC000000000346    0.1400
51     H51     0.2676   -1.4270    1.5514 H        1 ZINC000000000346    0.1500
@<TRIPOS>BOND
1     1     2     1
2     1     25    1
3     1     26    1
4     1     27    1
5     2     24    1
6     2     3     1
7     2     4     1
8     3     28    1
9     3     29    1
10    3     30    1
11    4     5     1
12    4     31    1
13    4     32    1
14    5     6     1
15    5     33    1
16    5     34    1
17    6     7     1
18    6     8     1
19    6     24    1
20    8     9     1
21    9     10    2
22    9     11    1
23    11    12    1
24    11    13    1
25    11    19    1
26    12    35    1
27    13    18    ar
28    13    14    ar
29    14    15    ar
30    14    36    1
31    15    16    ar
32    15    37    1
33    16    17    ar
34    16    38    1
35    17    18    ar
36    17    39    1
37    18    40    1
38    19    23    1
39    19    20    1
40    19    41    1
41    20    21    1
42    20    42    1
43    20    43    1
44    21    22    1
45    21    44    1
46    21    45    1
47    22    23    1
48    22    46    1
49    22    47    1
50    23    48    1
51    23    49    1
52    24    50    1
53    24    51    1
@<TRIPOS>SUBSTRUCTURE
1   ZINC000000000346 1     RESIDUE    1   A     ZIN   1
