@<TRIPOS>MOLECULE
ZINC000013540519
56    59    1     0     0
SMALL
USER_CHARGES
@<TRIPOS>ATOM
1      C1     -0.5811    1.5422   -0.2326 C.3      1 ZINC000013540519   -0.1700
2      C2     -0.7643    0.0236   -0.1972 C.3      1 ZINC000013540519   -0.0400
3      C3     -2.1165   -0.3171    0.3994 C.3      1 ZINC000013540519   -0.1300
4      C4     -2.1981    0.3823    1.7654 C.3      1 ZINC000013540519    0.1100
5      H5     -3.1466    0.1284    2.2386 H        1 ZINC000013540519    0.0600
6      O6     -2.1396    1.7966    1.5690 O.3      1 ZINC000013540519   -0.5400
7      C7     -1.0553   -0.0383    2.6847 C.3      1 ZINC000013540519   -0.0600
8      H8     -1.1682   -1.0942    2.9307 H        1 ZINC000013540519    0.0800
9      C9      0.3153    0.1778    2.0269 C.3      1 ZINC000013540519   -0.0800
10     H10     0.4737    1.2391    1.8358 H        1 ZINC000013540519    0.1000
11     C11     1.4064   -0.3542    2.9608 C.3      1 ZINC000013540519   -0.1100
12     C12     1.4274    0.4862    4.2394 C.3      1 ZINC000013540519   -0.1000
13     C13     0.0387    0.4781    4.8521 C.2      1 ZINC000013540519   -0.0100
14     C14    -0.0638    0.2041    6.1524 C.2      1 ZINC000013540519   -0.2500
15     C15    -1.3804    0.1991    6.7992 C.2      1 ZINC000013540519    0.3900
16     O16    -1.5802   -0.3971    7.8368 O.2      1 ZINC000013540519   -0.4600
17     C17    -2.4783    0.9782    6.1018 C.3      1 ZINC000013540519   -0.1700
18     C18    -2.4823    0.5489    4.6353 C.3      1 ZINC000013540519   -0.1000
19     C19    -1.1212    0.7849    3.9773 C.3      1 ZINC000013540519   -0.0300
20     C20    -1.0351    2.2607    3.5827 C.3      1 ZINC000013540519   -0.1400
21     C21     0.3136   -0.6154    0.7190 C.3      1 ZINC000013540519   -0.0800
22     H22     0.0890   -1.6644    0.9125 H        1 ZINC000013540519    0.0800
23     C23     1.5785   -0.4896   -0.1376 C.3      1 ZINC000013540519   -0.1100
24     C24     1.0747   -0.8629   -1.5585 C.3      1 ZINC000013540519   -0.1500
25     C25    -0.4538   -0.5667   -1.5688 C.3      1 ZINC000013540519    0.1000
26     O26    -1.1915   -1.7777   -1.7460 O.3      1 ZINC000013540519   -0.5400
27     C27    -0.7882    0.4145   -2.6626 C.2      1 ZINC000013540519    0.3400
28     O28     0.0486    1.1936   -3.0514 O.2      1 ZINC000013540519   -0.4100
29     C29    -2.1668    0.4234   -3.2712 C.3      1 ZINC000013540519    0.0300
30     O30    -2.2362    1.4345   -4.2786 O.3      1 ZINC000013540519   -0.5600
31     H31     0.3118    1.7871   -0.8079 H        1 ZINC000013540519    0.0500
32     H32    -1.4518    2.0025   -0.6996 H        1 ZINC000013540519    0.0500
33     H33    -0.4726    1.9189    0.7845 H        1 ZINC000013540519    0.1100
34     H34    -2.9118    0.0457   -0.2517 H        1 ZINC000013540519    0.0700
35     H35    -2.2042   -1.3958    0.5287 H        1 ZINC000013540519    0.0800
36     H36    -2.8550    2.1474    1.0211 H        1 ZINC000013540519    0.3700
37     H37     1.1959   -1.3938    3.2117 H        1 ZINC000013540519    0.0700
38     H38     2.3747   -0.2871    2.4649 H        1 ZINC000013540519    0.0700
39     H39     2.1406    0.0602    4.9450 H        1 ZINC000013540519    0.0800
40     H40     1.7148    1.5098    3.9992 H        1 ZINC000013540519    0.0900
41     H41     0.8224   -0.0145    6.7297 H        1 ZINC000013540519    0.1300
42     H42    -3.4417    0.7495    6.5574 H        1 ZINC000013540519    0.0900
43     H43    -2.2775    2.0471    6.1743 H        1 ZINC000013540519    0.1000
44     H44    -2.7243   -0.5123    4.5765 H        1 ZINC000013540519    0.0600
45     H45    -3.2449    1.1159    4.1013 H        1 ZINC000013540519    0.0800
46     H46    -0.7382    2.8517    4.4491 H        1 ZINC000013540519    0.0400
47     H47    -0.2972    2.3823    2.7897 H        1 ZINC000013540519    0.0700
48     H48    -2.0086    2.5993    3.2282 H        1 ZINC000013540519    0.0900
49     H49     1.9569    0.5324   -0.1187 H        1 ZINC000013540519    0.0700
50     H50     2.3425   -1.1912    0.1974 H        1 ZINC000013540519    0.0700
51     H51     1.5762   -0.2488   -2.3065 H        1 ZINC000013540519    0.0800
52     H52     1.2596   -1.9189   -1.7556 H        1 ZINC000013540519    0.0800
53     H53    -1.0092   -2.2308   -2.5805 H        1 ZINC000013540519    0.3800
54     H54    -2.3730   -0.5493   -3.7179 H        1 ZINC000013540519    0.0800
55     H55    -2.9047    0.6312   -2.4964 H        1 ZINC000013540519    0.0800
56     H56    -3.0972    1.4974   -4.7142 H        1 ZINC000013540519    0.3900
@<TRIPOS>BOND
1     1     2     1
2     1     31    1
3     1     32    1
4     1     33    1
5     2     21    1
6     2     25    1
7     2     3     1
8     3     4     1
9     3     34    1
10    3     35    1
11    4     5     1
12    4     6     1
13    4     7     1
14    6     36    1
15    7     8     1
16    7     19    1
17    7     9     1
18    9     10    1
19    9     11    1
20    9     21    1
21    11    12    1
22    11    37    1
23    11    38    1
24    12    13    1
25    12    39    1
26    12    40    1
27    13    19    1
28    13    14    2
29    14    15    1
30    14    41    1
31    15    16    2
32    15    17    1
33    17    18    1
34    17    42    1
35    17    43    1
36    18    19    1
37    18    44    1
38    18    45    1
39    19    20    1
40    20    46    1
41    20    47    1
42    20    48    1
43    21    22    1
44    21    23    1
45    23    24    1
46    23    49    1
47    23    50    1
48    24    25    1
49    24    51    1
50    24    52    1
51    25    26    1
52    25    27    1
53    26    53    1
54    27    28    2
55    27    29    1
56    29    30    1
57    29    54    1
58    29    55    1
59    30    56    1
@<TRIPOS>SUBSTRUCTURE
1   ZINC000013540519 1     RESIDUE    1   A     ZIN   1
