@<TRIPOS>MOLECULE
ZINC000049036447
55    59    1     0     0
SMALL
USER_CHARGES
@<TRIPOS>ATOM
1      C1      3.0254    1.0638    0.5898 C.3      1 ZINC000049036447   -0.1200
2      C2      1.9097    0.0652    0.4192 C.ar     1 ZINC000049036447   -0.0800
3      C3      1.0387    0.1811   -0.6508 C.ar     1 ZINC000049036447   -0.0800
4      C4      0.0118   -0.7280   -0.8175 C.ar     1 ZINC000049036447   -0.1000
5      C5     -0.1526   -1.7647    0.0889 C.ar     1 ZINC000049036447    0.1900
6      N6     -1.1913   -2.6855   -0.0783 N.pl3    1 ZINC000049036447   -0.1100
7      N7     -1.5051   -3.5952    0.7748 N.2      1 ZINC000049036447   -0.2400
8      C8     -2.5215   -4.2820    0.3044 C.2      1 ZINC000049036447   -0.0200
9      C9     -2.8236   -3.7157   -0.9378 C.2      1 ZINC000049036447   -0.0100
10     N10    -1.9660   -2.7343   -1.1035 N.2      1 ZINC000049036447   -0.3000
11     C11     0.7279   -1.8854    1.1734 C.ar     1 ZINC000049036447   -0.1100
12     C12     0.5631   -2.9852    2.1445 C.2      1 ZINC000049036447    0.5800
13     O13     0.5624   -4.1392    1.7618 O.2      1 ZINC000049036447   -0.4900
14     N14     0.4135   -2.7100    3.4554 N.am     1 ZINC000049036447   -0.5900
15     C15     0.2887   -1.2972    3.8706 C.3      1 ZINC000049036447    0.1200
16     C16    -0.7952   -1.1182    4.9501 C.3      1 ZINC000049036447    0.0400
17     N17    -1.9342   -1.9565    4.6410 N.3      1 ZINC000049036447   -0.4100
18     C18    -3.1143   -1.3190    4.9506 C.2      1 ZINC000049036447    0.4100
19     N19    -4.0969   -1.1118    4.1117 N.2      1 ZINC000049036447   -0.4400
20     C20    -5.0967   -0.4568    4.7636 C.ar     1 ZINC000049036447    0.0400
21     C21    -6.3532    0.0110    4.3781 C.ar     1 ZINC000049036447   -0.0500
22     C22    -7.1553    0.6535    5.2978 C.ar     1 ZINC000049036447   -0.0400
23     Cl23   -8.7194    1.2366    4.8208 Cl       1 ZINC000049036447   -0.0500
24     C24    -6.7195    0.8359    6.6018 C.ar     1 ZINC000049036447   -0.0800
25     C25    -5.4780    0.3775    6.9952 C.ar     1 ZINC000049036447   -0.0800
26     C26    -4.6600   -0.2694    6.0838 C.ar     1 ZINC000049036447    0.0200
27     O27    -3.4279   -0.8236    6.1606 O.3      1 ZINC000049036447   -0.2400
28     C28    -1.8336   -3.2395    5.3359 C.3      1 ZINC000049036447    0.0600
29     C29    -1.0826   -4.2739    4.5991 C.3      1 ZINC000049036447   -0.1300
30     C30     0.3763   -3.8110    4.3932 C.3      1 ZINC000049036447    0.1500
31     H31     0.7922   -3.4861    5.3469 H        1 ZINC000049036447    0.0800
32     C32     1.2070   -4.9725    3.8440 C.3      1 ZINC000049036447   -0.1500
33     C33     1.7644   -0.9633    1.3266 C.ar     1 ZINC000049036447   -0.0800
34     H34     3.9109    0.7133    0.0595 H        1 ZINC000049036447    0.0800
35     H35     2.7161    2.0269    0.1837 H        1 ZINC000049036447    0.0700
36     H36     3.2561    1.1734    1.6494 H        1 ZINC000049036447    0.0700
37     H37     1.1625    0.9870   -1.3590 H        1 ZINC000049036447    0.1400
38     H38    -0.6639   -0.6310   -1.6544 H        1 ZINC000049036447    0.1500
39     H39    -3.0209   -5.1134    0.7794 H        1 ZINC000049036447    0.2000
40     H40    -3.6043   -4.0199   -1.6193 H        1 ZINC000049036447    0.2000
41     H41     1.2454   -0.9568    4.2668 H        1 ZINC000049036447    0.0800
42     H42     0.0291   -0.6924    3.0017 H        1 ZINC000049036447    0.0900
43     H43    -0.3898   -1.4010    5.9216 H        1 ZINC000049036447    0.0700
44     H44    -1.1098   -0.0750    4.9788 H        1 ZINC000049036447    0.0900
45     H45    -6.6962   -0.1292    3.3636 H        1 ZINC000049036447    0.1500
46     H46    -7.3553    1.3404    7.3142 H        1 ZINC000049036447    0.1500
47     H47    -5.1450    0.5234    8.0121 H        1 ZINC000049036447    0.1500
48     H48    -1.3448   -3.0753    6.2963 H        1 ZINC000049036447    0.0600
49     H49    -2.8409   -3.6112    5.5236 H        1 ZINC000049036447    0.0800
50     H50    -1.0923   -5.2035    5.1683 H        1 ZINC000049036447    0.0900
51     H51    -1.5501   -4.4391    3.6285 H        1 ZINC000049036447    0.0900
52     H52     0.6424   -5.4873    3.0665 H        1 ZINC000049036447    0.1000
53     H53     2.1362   -4.5879    3.4238 H        1 ZINC000049036447    0.0500
54     H54     1.4341   -5.6700    4.6503 H        1 ZINC000049036447    0.0500
55     H55     2.4464   -1.0499    2.1594 H        1 ZINC000049036447    0.1400
@<TRIPOS>BOND
1     1     2     1
2     1     34    1
3     1     35    1
4     1     36    1
5     2     33    ar
6     2     3     ar
7     3     4     ar
8     3     37    1
9     4     5     ar
10    4     38    1
11    5     6     1
12    5     11    ar
13    6     10    1
14    6     7     1
15    7     8     2
16    8     9     1
17    8     39    1
18    9     10    2
19    9     40    1
20    11    12    1
21    11    33    ar
22    12    13    2
23    12    14    am
24    14    30    1
25    14    15    1
26    15    16    1
27    15    41    1
28    15    42    1
29    16    17    1
30    16    43    1
31    16    44    1
32    17    18    1
33    17    28    1
34    18    27    1
35    18    19    2
36    19    20    1
37    20    26    ar
38    20    21    ar
39    21    22    ar
40    21    45    1
41    22    23    1
42    22    24    ar
43    24    25    ar
44    24    46    1
45    25    26    ar
46    25    47    1
47    26    27    1
48    28    29    1
49    28    48    1
50    28    49    1
51    29    30    1
52    29    50    1
53    29    51    1
54    30    31    1
55    30    32    1
56    32    52    1
57    32    53    1
58    32    54    1
59    33    55    1
@<TRIPOS>SUBSTRUCTURE
1   ZINC000049036447 1     RESIDUE    1   A     ZIN   1
