@<TRIPOS>MOLECULE
ZINC000013986658
49    53    1     0     0
SMALL
USER_CHARGES
@<TRIPOS>ATOM
1      C1      1.8711    0.3613   -1.4319 C.3      1 ZINC000013986658   -0.1400
2      C2      1.2507   -1.0123   -1.1690 C.3      1 ZINC000013986658   -0.1300
3      C3     -0.1257   -0.8354   -0.5248 C.3      1 ZINC000013986658    0.2000
4      H4     -0.7418   -0.1936   -1.1545 H        1 ZINC000013986658    0.1200
5      N5      0.0286   -0.2207    0.7960 N.pl3    1 ZINC000013986658   -0.6800
6      C6      0.1134    1.1557    0.9130 C.ar     1 ZINC000013986658    0.5100
7      C7      0.2675    1.7621    2.1711 C.ar     1 ZINC000013986658   -0.1100
8      N8      0.3654    1.3060    3.4430 N.2      1 ZINC000013986658   -0.4600
9      C9      0.4978    2.3139    4.2556 C.2      1 ZINC000013986658    0.2500
10     N10     0.4929    3.4822    3.5532 N.pl3    1 ZINC000013986658   -0.5800
11     C11     0.3481    3.1639    2.2265 C.ar     1 ZINC000013986658    0.3000
12     N12     0.2767    3.8601    1.0968 N.ar     1 ZINC000013986658   -0.5600
13     C13     0.1325    3.2486   -0.0601 C.ar     1 ZINC000013986658    0.3600
14     N14     0.0564    1.9343   -0.1626 N.ar     1 ZINC000013986658   -0.5800
15     C15    -0.7884   -2.1809   -0.3782 C.2      1 ZINC000013986658    0.4000
16     N16    -0.4998   -2.8999    0.6637 N.2      1 ZINC000013986658   -0.5100
17     C17    -1.0577   -4.1206    0.8618 C.ar     1 ZINC000013986658    0.1800
18     C18    -0.7483   -4.8936    1.9815 C.ar     1 ZINC000013986658   -0.1200
19     C19    -1.3380   -6.1282    2.1444 C.ar     1 ZINC000013986658   -0.0400
20     C20    -2.2380   -6.6161    1.2083 C.ar     1 ZINC000013986658   -0.1700
21     C21    -2.5612   -5.8713    0.0908 C.ar     1 ZINC000013986658    0.1800
22     F22    -3.4384   -6.3516   -0.8176 F        1 ZINC000013986658   -0.1100
23     C23    -1.9747   -4.6181   -0.0917 C.ar     1 ZINC000013986658   -0.2400
24     C24    -2.2794   -3.7806   -1.2591 C.2      1 ZINC000013986658    0.5500
25     O25    -3.0601   -4.1510   -2.1165 O.2      1 ZINC000013986658   -0.4800
26     N26    -1.6631   -2.5784   -1.3418 N.am     1 ZINC000013986658   -0.4900
27     C27    -1.9192   -1.7410   -2.4348 C.ar     1 ZINC000013986658    0.0900
28     C28    -2.9401   -0.8021   -2.3677 C.ar     1 ZINC000013986658   -0.1000
29     C29    -3.1899    0.0226   -3.4471 C.ar     1 ZINC000013986658   -0.1000
30     C30    -2.4246   -0.0859   -4.5937 C.ar     1 ZINC000013986658   -0.1000
31     C31    -1.4075   -1.0202   -4.6638 C.ar     1 ZINC000013986658   -0.1000
32     C32    -1.1491   -1.8439   -3.5857 C.ar     1 ZINC000013986658   -0.1000
33     H33     2.8517    0.2353   -1.8908 H        1 ZINC000013986658    0.0500
34     H34     1.2262    0.9289   -2.1027 H        1 ZINC000013986658    0.0700
35     H35     1.9774    0.8984   -0.4894 H        1 ZINC000013986658    0.0500
36     H36     1.1445   -1.5494   -2.1115 H        1 ZINC000013986658    0.0700
37     H37     1.8956   -1.5799   -0.4981 H        1 ZINC000013986658    0.0800
38     H38     0.0715   -0.7783    1.5885 H        1 ZINC000013986658    0.4300
39     H39     0.5965    2.2362    5.3282 H        1 ZINC000013986658    0.2300
40     H40     0.5762    4.3749    3.9235 H        1 ZINC000013986658    0.4300
41     H41     0.0779    3.8441   -0.9595 H        1 ZINC000013986658    0.2000
42     H42    -0.0490   -4.5257    2.7177 H        1 ZINC000013986658    0.1500
43     H43    -1.0961   -6.7240    3.0121 H        1 ZINC000013986658    0.1500
44     H44    -2.6894   -7.5863    1.3543 H        1 ZINC000013986658    0.1500
45     H45    -3.5384   -0.7171   -1.4726 H        1 ZINC000013986658    0.1300
46     H46    -3.9840    0.7528   -3.3956 H        1 ZINC000013986658    0.1300
47     H47    -2.6219    0.5601   -5.4364 H        1 ZINC000013986658    0.1300
48     H48    -0.8120   -1.1030   -5.5610 H        1 ZINC000013986658    0.1400
49     H49    -0.3543   -2.5731   -3.6409 H        1 ZINC000013986658    0.1300
@<TRIPOS>BOND
1     1     2     1
2     1     33    1
3     1     34    1
4     1     35    1
5     2     3     1
6     2     36    1
7     2     37    1
8     3     4     1
9     3     5     1
10    3     15    1
11    5     6     1
12    5     38    1
13    6     14    ar
14    6     7     ar
15    7     11    ar
16    7     8     1
17    8     9     2
18    9     10    1
19    9     39    1
20    10    11    1
21    10    40    1
22    11    12    ar
23    12    13    ar
24    13    14    ar
25    13    41    1
26    15    26    1
27    15    16    2
28    16    17    1
29    17    23    ar
30    17    18    ar
31    18    19    ar
32    18    42    1
33    19    20    ar
34    19    43    1
35    20    21    ar
36    20    44    1
37    21    22    1
38    21    23    ar
39    23    24    1
40    24    25    2
41    24    26    am
42    26    27    1
43    27    32    ar
44    27    28    ar
45    28    29    ar
46    28    45    1
47    29    30    ar
48    29    46    1
49    30    31    ar
50    30    47    1
51    31    32    ar
52    31    48    1
53    32    49    1
@<TRIPOS>SUBSTRUCTURE
1   ZINC000013986658 1     RESIDUE    1   A     ZIN   1
