@<TRIPOS>MOLECULE
ZINC000007997952
42    43    1     0     0
SMALL
USER_CHARGES
@<TRIPOS>ATOM
1      C1      0.7571    0.1738   -0.6691 C.3      1 ZINC000007997952    0.0200
2      N2     -0.2238    0.0664    0.4191 N.3      1 ZINC000007997952   -0.5400
3      C3     -0.5107    1.3842    1.0013 C.3      1 ZINC000007997952    0.0200
4      C4     -1.4566   -0.5835   -0.0456 C.3      1 ZINC000007997952    0.0500
5      C5     -1.2191   -2.0887   -0.1826 C.3      1 ZINC000007997952    0.0600
6      O6     -0.9389   -2.6457    1.1032 O.3      1 ZINC000007997952   -0.3500
7      C7     -0.8193   -4.0697    1.1062 C.3      1 ZINC000007997952    0.2100
8      C8      0.2205   -4.4964    0.0681 C.3      1 ZINC000007997952   -0.1800
9      C9     -2.1515   -4.6864    0.7656 C.ar     1 ZINC000007997952   -0.0900
10     C10    -2.2054   -5.9464    0.1995 C.ar     1 ZINC000007997952   -0.1000
11     C11    -3.4274   -6.5121   -0.1130 C.ar     1 ZINC000007997952   -0.1200
12     C12    -4.5955   -5.8180    0.1412 C.ar     1 ZINC000007997952   -0.1200
13     C13    -4.5417   -4.5584    0.7081 C.ar     1 ZINC000007997952   -0.1200
14     C14    -3.3199   -3.9945    1.0245 C.ar     1 ZINC000007997952   -0.1000
15     C15    -0.3852   -4.5345    2.4724 C.ar     1 ZINC000007997952    0.1400
16     C16     0.7666   -4.0186    3.0352 C.ar     1 ZINC000007997952   -0.1400
17     C17     1.1570   -4.4525    4.2931 C.ar     1 ZINC000007997952   -0.0800
18     C18     0.3706   -5.3931    4.9401 C.ar     1 ZINC000007997952   -0.1700
19     C19    -0.7685   -5.8638    4.3144 C.ar     1 ZINC000007997952    0.1000
20     N20    -1.1120   -5.4247    3.1194 N.ar     1 ZINC000007997952   -0.4600
21     H21     1.6601    0.6584   -0.2977 H        1 ZINC000007997952    0.0700
22     H22     1.0041   -0.8227   -1.0353 H        1 ZINC000007997952    0.0700
23     H23     0.3352    0.7653   -1.4816 H        1 ZINC000007997952    0.0200
24     H24    -0.8350    2.0659    0.2150 H        1 ZINC000007997952    0.0200
25     H25    -1.2997    1.2880    1.7471 H        1 ZINC000007997952    0.0700
26     H26     0.3899    1.7766    1.4737 H        1 ZINC000007997952    0.0700
27     H27    -2.2549   -0.4057    0.6749 H        1 ZINC000007997952    0.0800
28     H28    -1.7421   -0.1711   -1.0134 H        1 ZINC000007997952    0.0500
29     H29    -2.1100   -2.5609   -0.5968 H        1 ZINC000007997952    0.0600
30     H30    -0.3729   -2.2641   -0.8469 H        1 ZINC000007997952    0.0500
31     H31     1.1841   -4.0504    0.3145 H        1 ZINC000007997952    0.0700
32     H32     0.3117   -5.5826    0.0704 H        1 ZINC000007997952    0.0700
33     H33    -0.0934   -4.1603   -0.9201 H        1 ZINC000007997952    0.0700
34     H34    -1.2927   -6.4886    0.0009 H        1 ZINC000007997952    0.1200
35     H35    -3.4694   -7.4961   -0.5559 H        1 ZINC000007997952    0.1200
36     H36    -5.5502   -6.2596   -0.1036 H        1 ZINC000007997952    0.1200
37     H37    -5.4543   -4.0160    0.9063 H        1 ZINC000007997952    0.1200
38     H38    -3.2778   -3.0104    1.4674 H        1 ZINC000007997952    0.1200
39     H39     1.3555   -3.2870    2.5020 H        1 ZINC000007997952    0.1400
40     H40     2.0527   -4.0672    4.7575 H        1 ZINC000007997952    0.1400
41     H41     0.6446   -5.7538    5.9205 H        1 ZINC000007997952    0.1400
42     H42    -1.3864   -6.5969    4.8115 H        1 ZINC000007997952    0.1600
@<TRIPOS>BOND
1     1     2     1
2     1     21    1
3     1     22    1
4     1     23    1
5     2     3     1
6     2     4     1
7     3     24    1
8     3     25    1
9     3     26    1
10    4     5     1
11    4     27    1
12    4     28    1
13    5     6     1
14    5     29    1
15    5     30    1
16    6     7     1
17    7     8     1
18    7     9     1
19    7     15    1
20    8     31    1
21    8     32    1
22    8     33    1
23    9     14    ar
24    9     10    ar
25    10    11    ar
26    10    34    1
27    11    12    ar
28    11    35    1
29    12    13    ar
30    12    36    1
31    13    14    ar
32    13    37    1
33    14    38    1
34    15    20    ar
35    15    16    ar
36    16    17    ar
37    16    39    1
38    17    18    ar
39    17    40    1
40    18    19    ar
41    18    41    1
42    19    20    ar
43    19    42    1
@<TRIPOS>SUBSTRUCTURE
1   ZINC000007997952 1     RESIDUE    1   A     ZIN   1
