@<TRIPOS>MOLECULE
ZINC000000004413
40    40    1     0     0
SMALL
USER_CHARGES
@<TRIPOS>ATOM
1      C1     -0.6028   -2.3456   -0.4312 C.3      1 ZINC000000004413   -0.1700
2      C2     -0.3163   -2.8455    0.9862 C.3      1 ZINC000000004413    0.1300
3      N3      0.5539   -1.8889    1.6747 N.am     1 ZINC000000004413   -0.6000
4      C4     -0.0316   -0.7886    2.4446 C.3      1 ZINC000000004413    0.0800
5      C5      1.8931   -2.0212    1.5998 C.2      1 ZINC000000004413    0.6400
6      O6      2.3787   -2.9339    0.9612 O.2      1 ZINC000000004413   -0.5500
7      O7      2.6930   -1.1419    2.2328 O.3      1 ZINC000000004413   -0.3000
8      C8      4.0291   -1.3905    2.2028 C.ar     1 ZINC000000004413    0.1000
9      C9      4.7622   -1.1110    1.0591 C.ar     1 ZINC000000004413   -0.1100
10     C10     6.1202   -1.3647    1.0310 C.ar     1 ZINC000000004413   -0.1100
11     C11     6.7481   -1.8967    2.1417 C.ar     1 ZINC000000004413   -0.0900
12     C12     6.0193   -2.1768    3.2831 C.ar     1 ZINC000000004413   -0.0700
13     C13     6.7069   -2.7572    4.4920 C.3      1 ZINC000000004413    0.1200
14     H14     5.9680   -3.2327    5.1369 H        1 ZINC000000004413    0.0500
15     C15     7.4129   -1.6398    5.2627 C.3      1 ZINC000000004413   -0.1400
16     N16     7.6953   -3.7550    4.0612 N.3      1 ZINC000000004413   -0.5400
17     C17     8.3870   -4.3434    5.2158 C.3      1 ZINC000000004413    0.0200
18     C18     7.0673   -4.7962    3.2369 C.3      1 ZINC000000004413    0.0200
19     C19     4.6628   -1.9192    3.3182 C.ar     1 ZINC000000004413   -0.1100
20     H20     0.3347   -2.2481   -0.9785 H        1 ZINC000000004413    0.0600
21     H21    -1.2502   -3.0573   -0.9435 H        1 ZINC000000004413    0.0700
22     H22    -1.0971   -1.3754   -0.3813 H        1 ZINC000000004413    0.0600
23     H23    -1.2538   -2.9430    1.5335 H        1 ZINC000000004413    0.0900
24     H24     0.1780   -3.8157    0.9363 H        1 ZINC000000004413    0.0900
25     H25    -0.1884   -1.1091    3.4746 H        1 ZINC000000004413    0.0600
26     H26     0.6448    0.0660    2.4290 H        1 ZINC000000004413    0.0800
27     H27    -0.9867   -0.5042    2.0032 H        1 ZINC000000004413    0.0800
28     H28     4.2720   -0.6956    0.1910 H        1 ZINC000000004413    0.1300
29     H29     6.6914   -1.1475    0.1406 H        1 ZINC000000004413    0.1300
30     H30     7.8096   -2.0944    2.1179 H        1 ZINC000000004413    0.1400
31     H31     6.6795   -0.8995    5.5824 H        1 ZINC000000004413    0.0600
32     H32     7.9102   -2.0597    6.1371 H        1 ZINC000000004413    0.0600
33     H33     8.1518   -1.1643    4.6178 H        1 ZINC000000004413    0.0700
34     H34     7.6597   -4.8300    5.8658 H        1 ZINC000000004413    0.0300
35     H35     9.1129   -5.0786    4.8685 H        1 ZINC000000004413    0.0700
36     H36     8.9015   -3.5584    5.7699 H        1 ZINC000000004413    0.0700
37     H37     6.6225   -4.3403    2.3524 H        1 ZINC000000004413    0.0700
38     H38     7.8212   -5.5218    2.9315 H        1 ZINC000000004413    0.0700
39     H39     6.2922   -5.2991    3.8152 H        1 ZINC000000004413    0.0300
40     H40     4.0940   -2.1381    4.2098 H        1 ZINC000000004413    0.1300
@<TRIPOS>BOND
1     1     2     1
2     1     20    1
3     1     21    1
4     1     22    1
5     2     3     1
6     2     23    1
7     2     24    1
8     3     4     1
9     3     5     am
10    4     25    1
11    4     26    1
12    4     27    1
13    5     6     2
14    5     7     1
15    7     8     1
16    8     19    ar
17    8     9     ar
18    9     10    ar
19    9     28    1
20    10    11    ar
21    10    29    1
22    11    12    ar
23    11    30    1
24    12    13    1
25    12    19    ar
26    13    14    1
27    13    15    1
28    13    16    1
29    15    31    1
30    15    32    1
31    15    33    1
32    16    17    1
33    16    18    1
34    17    34    1
35    17    35    1
36    17    36    1
37    18    37    1
38    18    38    1
39    18    39    1
40    19    40    1
@<TRIPOS>SUBSTRUCTURE
1   ZINC000000004413 1     RESIDUE    1   A     ZIN   1
