@<TRIPOS>MOLECULE
ZINC000006382803
16   17    0    0    0
SMALL
USER_CHARGES
NO_NAME
@<TRIPOS>ATOM
1 N1       -0.0165     1.3681     0.0096 N.pl3  1 <0>      -0.8100
2 C2        0.0021    -0.0041     0.0020 C.2    1 <0>       0.6400
3 N3       -1.1381    -0.6579     0.0040 N.2    1 <0>      -0.5600
4 C4       -1.1679    -1.9962    -0.0031 C.2    1 <0>       0.3200
5 C5        0.0323    -2.7164    -0.0129 C.2    1 <0>      -0.0700
6 N6       -0.2887    -4.0328    -0.0180 N.2    1 <0>      -0.4200
7 C7       -1.5837    -4.1607    -0.0122 C.2    1 <0>       0.2400
8 N8       -2.1701    -2.9284    -0.0029 N.pl3  1 <0>      -0.5600
9 C9        1.2512    -2.0003    -0.0153 C.2    1 <0>       0.3800
10 S10       2.7522    -2.8237    -0.0272 S.2    1 <0>      -0.5200
11 N11       1.2025    -0.6498    -0.0129 N.am   1 <0>      -0.5900
12 H12       0.8168     1.8645     0.0043 H      1 <0>       0.4200
13 H13      -0.8631     1.8416     0.0162 H      1 <0>       0.4300
14 H14      -2.1148    -5.1011    -0.0146 H      1 <0>       0.2300
15 H15      -3.1229    -2.7465     0.0034 H      1 <0>       0.4300
16 H16       2.0260    -0.1372    -0.0148 H      1 <0>       0.4300
@<TRIPOS>BOND
1    1    2 1
2    1   12 1
3    1   13 1
4    2   11 1
5    2    3 2
6    3    4 1
7    4    8 1
8    4    5 2
9    5    6 1
10    5    9 1
11    6    7 2
12    7    8 1
13    7   14 1
14    8   15 1
15    9   10 2
16    9   11 am
17   11   16 1
