@<TRIPOS>MOLECULE
ZINC000003830276
95    95    1     0     0
SMALL
USER_CHARGES
@<TRIPOS>ATOM
1      C1     -0.0187    1.5258    0.0104 C.3      1 ZINC000003830276   -0.1500
2      C2      0.0021   -0.0041    0.0020 C.3      1 ZINC000003830276   -0.1200
3      C3      0.7182   -0.4975   -1.2568 C.3      1 ZINC000003830276   -0.1300
4      C4      0.7390   -2.0273   -1.2652 C.3      1 ZINC000003830276    0.1200
5      N5      1.4247   -2.4998   -2.4705 N.pl3    1 ZINC000003830276   -0.7400
6      C6      1.5681   -3.8634   -2.6992 C.ar     1 ZINC000003830276    0.2500
7      C7      1.0544   -4.7789   -1.7845 C.ar     1 ZINC000003830276   -0.2100
8      C8      1.1942   -6.1246   -2.0070 C.ar     1 ZINC000003830276    0.0000
9      C9      1.8535   -6.5773   -3.1543 C.ar     1 ZINC000003830276   -0.1900
10     C10     2.0052   -8.0230   -3.3970 C.2      1 ZINC000003830276    0.5100
11     O11     1.5570   -8.8232   -2.5998 O.2      1 ZINC000003830276   -0.5200
12     O12     2.6408   -8.4576   -4.5030 O.3      1 ZINC000003830276   -0.3500
13     C13     2.7531   -9.8948   -4.6770 C.3      1 ZINC000003830276    0.0700
14     C14     3.4992  -10.1941   -5.9787 C.3      1 ZINC000003830276    0.0600
15     O15     4.8433   -9.7194   -5.8773 O.3      1 ZINC000003830276   -0.3700
16     C16     5.6311   -9.9506   -7.0469 C.3      1 ZINC000003830276    0.0600
17     C17     7.0433   -9.4047   -6.8267 C.3      1 ZINC000003830276    0.0600
18     O18     7.6839  -10.1463   -5.7867 O.3      1 ZINC000003830276   -0.3700
19     C19     9.0156   -9.7144   -5.5002 C.3      1 ZINC000003830276    0.0600
20     C20     9.6002  -10.5739   -4.3776 C.3      1 ZINC000003830276    0.0600
21     O21     9.7294  -11.9236   -4.8290 O.3      1 ZINC000003830276   -0.3700
22     C22    10.2693  -12.8145   -3.8508 C.3      1 ZINC000003830276    0.0600
23     C23    10.3621  -14.2234   -4.4401 C.3      1 ZINC000003830276    0.0600
24     O24    11.3024  -14.2286   -5.5161 O.3      1 ZINC000003830276   -0.3700
25     C25    11.4652  -15.5041   -6.1396 C.3      1 ZINC000003830276    0.0600
26     C26    12.4891  -15.3918   -7.2708 C.3      1 ZINC000003830276    0.0600
27     O27    13.7701  -15.0722   -6.7239 O.3      1 ZINC000003830276   -0.3700
28     C28    14.8040  -14.9439   -7.7019 C.3      1 ZINC000003830276    0.0600
29     C29    16.1237  -14.6025   -7.0070 C.3      1 ZINC000003830276    0.0600
30     O30    16.5218  -15.6957   -6.1773 O.3      1 ZINC000003830276   -0.3700
31     C31    17.7495  -15.4784   -5.4789 C.3      1 ZINC000003830276    0.0600
32     C32    18.0757  -16.7064   -4.6267 C.3      1 ZINC000003830276    0.0600
33     O33    18.3191  -17.8270   -5.4794 O.3      1 ZINC000003830276   -0.3700
34     C34    18.6347  -19.0323   -4.7795 C.3      1 ZINC000003830276    0.0600
35     C35    18.8745  -20.1589   -5.7865 C.3      1 ZINC000003830276    0.0600
36     O36    20.0333  -19.8609   -6.5678 O.3      1 ZINC000003830276   -0.3700
37     C37    20.3473  -20.8556   -7.5445 C.3      1 ZINC000003830276    0.0600
38     C38    21.5986  -20.4342   -8.3175 C.3      1 ZINC000003830276    0.0600
39     O39    22.7194  -20.4075   -7.4313 O.3      1 ZINC000003830276   -0.3800
40     C40    23.9457  -20.0240   -8.0566 C.3      1 ZINC000003830276    0.0300
41     C41     2.3683   -5.6550   -4.0711 C.ar     1 ZINC000003830276   -0.0100
42     C42     2.2201   -4.3107   -3.8453 C.ar     1 ZINC000003830276   -0.2100
43     H43     1.0039    1.9031    0.0027 H        1 ZINC000003830276    0.0500
44     H44    -0.5459    1.8868   -0.8726 H        1 ZINC000003830276    0.0500
45     H45    -0.5289    1.8773    0.9072 H        1 ZINC000003830276    0.0600
46     H46     0.5293   -0.3651    0.8851 H        1 ZINC000003830276    0.0700
47     H47    -1.0205   -0.3814    0.0098 H        1 ZINC000003830276    0.0700
48     H48     0.1910   -0.1364   -2.1398 H        1 ZINC000003830276    0.0700
49     H49     1.7408   -0.1202   -1.2645 H        1 ZINC000003830276    0.0700
50     H50     1.2661   -2.3884   -0.3821 H        1 ZINC000003830276    0.0600
51     H51    -0.2836   -2.4046   -1.2575 H        1 ZINC000003830276    0.0600
52     H52     1.7786   -1.8611   -3.1090 H        1 ZINC000003830276    0.4000
53     H53     0.5457   -4.4287   -0.8985 H        1 ZINC000003830276    0.1300
54     H54     0.7958   -6.8342   -1.2969 H        1 ZINC000003830276    0.1400
55     H55     3.3022  -10.3206   -3.8372 H        1 ZINC000003830276    0.0800
56     H56     1.7566  -10.3345   -4.7200 H        1 ZINC000003830276    0.0900
57     H57     3.5061  -11.2698   -6.1544 H        1 ZINC000003830276    0.0700
58     H58     2.9988   -9.6938   -6.8077 H        1 ZINC000003830276    0.0600
59     H59     5.6822  -11.0213   -7.2448 H        1 ZINC000003830276    0.0600
60     H60     5.1749   -9.4452   -7.8981 H        1 ZINC000003830276    0.0700
61     H61     7.6177   -9.5005   -7.7480 H        1 ZINC000003830276    0.0600
62     H62     6.9864   -8.3541   -6.5416 H        1 ZINC000003830276    0.0600
63     H63     9.6309   -9.8167   -6.3941 H        1 ZINC000003830276    0.0600
64     H64     8.9996   -8.6703   -5.1877 H        1 ZINC000003830276    0.0600
65     H65    10.5809  -10.1888   -4.0982 H        1 ZINC000003830276    0.0600
66     H66     8.9374  -10.5419   -3.5128 H        1 ZINC000003830276    0.0600
67     H67    11.2638  -12.4758   -3.5605 H        1 ZINC000003830276    0.0600
68     H68     9.6204  -12.8290   -2.9751 H        1 ZINC000003830276    0.0600
69     H69    10.6897  -14.9194   -3.6679 H        1 ZINC000003830276    0.0600
70     H70     9.3833  -14.5271   -4.8115 H        1 ZINC000003830276    0.0600
71     H71    11.8157  -16.2267   -5.4026 H        1 ZINC000003830276    0.0600
72     H72    10.5093  -15.8344   -6.5462 H        1 ZINC000003830276    0.0600
73     H73    12.5480  -16.3412   -7.8032 H        1 ZINC000003830276    0.0600
74     H74    12.1828  -14.6063   -7.9616 H        1 ZINC000003830276    0.0600
75     H75    14.9109  -15.8839   -8.2432 H        1 ZINC000003830276    0.0600
76     H76    14.5457  -14.1491   -8.4016 H        1 ZINC000003830276    0.0600
77     H77    16.8922  -14.4174   -7.7575 H        1 ZINC000003830276    0.0600
78     H78    15.9918  -13.7107   -6.3945 H        1 ZINC000003830276    0.0600
79     H79    18.5517  -15.3114   -6.1977 H        1 ZINC000003830276    0.0600
80     H80    17.6512  -14.6047   -4.8346 H        1 ZINC000003830276    0.0600
81     H81    18.9635  -16.5069   -4.0267 H        1 ZINC000003830276    0.0600
82     H82    17.2346  -16.9262   -3.9691 H        1 ZINC000003830276    0.0600
83     H83    19.5342  -18.8809   -4.1827 H        1 ZINC000003830276    0.0600
84     H84    17.8053  -19.3002   -4.1251 H        1 ZINC000003830276    0.0600
85     H85    19.0275  -21.0969   -5.2527 H        1 ZINC000003830276    0.0600
86     H86    18.0083  -20.2510   -6.4418 H        1 ZINC000003830276    0.0600
87     H87    20.5309  -21.8080   -7.0472 H        1 ZINC000003830276    0.0600
88     H88    19.5116  -20.9621   -8.2363 H        1 ZINC000003830276    0.0600
89     H89    21.7871  -21.1471   -9.1202 H        1 ZINC000003830276    0.0600
90     H90    21.4469  -19.4416   -8.7413 H        1 ZINC000003830276    0.0600
91     H91    24.7471  -20.0283   -7.3177 H        1 ZINC000003830276    0.0900
92     H92    24.1829  -20.7283   -8.8539 H        1 ZINC000003830276    0.0400
93     H93    23.8426  -19.0228   -8.4750 H        1 ZINC000003830276    0.0400
94     H94     2.8780   -6.0013   -4.9580 H        1 ZINC000003830276    0.1400
95     H95     2.6170   -3.5980   -4.5530 H        1 ZINC000003830276    0.1300
@<TRIPOS>BOND
1     1     2     1
2     1     43    1
3     1     44    1
4     1     45    1
5     2     3     1
6     2     46    1
7     2     47    1
8     3     4     1
9     3     48    1
10    3     49    1
11    4     5     1
12    4     50    1
13    4     51    1
14    5     6     1
15    5     52    1
16    6     42    ar
17    6     7     ar
18    7     8     ar
19    7     53    1
20    8     9     ar
21    8     54    1
22    9     10    1
23    9     41    ar
24    10    11    2
25    10    12    1
26    12    13    1
27    13    14    1
28    13    55    1
29    13    56    1
30    14    15    1
31    14    57    1
32    14    58    1
33    15    16    1
34    16    17    1
35    16    59    1
36    16    60    1
37    17    18    1
38    17    61    1
39    17    62    1
40    18    19    1
41    19    20    1
42    19    63    1
43    19    64    1
44    20    21    1
45    20    65    1
46    20    66    1
47    21    22    1
48    22    23    1
49    22    67    1
50    22    68    1
51    23    24    1
52    23    69    1
53    23    70    1
54    24    25    1
55    25    26    1
56    25    71    1
57    25    72    1
58    26    27    1
59    26    73    1
60    26    74    1
61    27    28    1
62    28    29    1
63    28    75    1
64    28    76    1
65    29    30    1
66    29    77    1
67    29    78    1
68    30    31    1
69    31    32    1
70    31    79    1
71    31    80    1
72    32    33    1
73    32    81    1
74    32    82    1
75    33    34    1
76    34    35    1
77    34    83    1
78    34    84    1
79    35    36    1
80    35    85    1
81    35    86    1
82    36    37    1
83    37    38    1
84    37    87    1
85    37    88    1
86    38    39    1
87    38    89    1
88    38    90    1
89    39    40    1
90    40    91    1
91    40    92    1
92    40    93    1
93    41    42    ar
94    41    94    1
95    42    95    1
@<TRIPOS>SUBSTRUCTURE
1   ZINC000003830276 1     RESIDUE    1   A     ZIN   1
