@<TRIPOS>MOLECULE
ZINC000118912517
56   59    0    0    0
SMALL
USER_CHARGES
NO_NAME
@<TRIPOS>ATOM
1 C1       -2.1736     1.5571     0.4476 C.3    1 <0>      -0.2200
2 C2       -1.6196     0.1577     0.3704 C.2    1 <0>       0.3300
3 O3       -1.2965    -0.4203     1.3802 O.2    1 <0>      -0.4300
4 C4       -1.4689    -0.5202    -0.9671 C.3    1 <0>       0.1000
5 O5       -2.3496     0.0724    -1.9238 O.3    1 <0>      -0.5400
6 C6       -0.0016    -0.4255    -1.4545 C.3    1 <0>      -0.1400
7 C7        0.4818    -1.8848    -1.6753 C.3    1 <0>      -0.1100
8 C8       -0.8266    -2.6483    -1.9073 C.3    1 <0>      -0.0800
9 H9       -1.2083    -2.4513    -2.9091 H      1 <0>       0.0900
10 C10      -0.7743    -4.1430    -1.6475 C.3    1 <0>      -0.1000
11 H11      -0.4599    -4.3269    -0.6201 H      1 <0>       0.1200
12 C12       0.2092    -4.8047    -2.6143 C.3    1 <0>      -0.1100
13 C13       0.2866    -6.3069    -2.3241 C.3    1 <0>      -0.0600
14 H14       0.7004    -6.4687    -1.3288 H      1 <0>       0.0900
15 C15       1.1715    -6.9900    -3.3688 C.3    1 <0>      -0.1500
16 C16      -1.1193    -6.8731    -2.3929 C.2    1 <0>      -0.0300
17 C17      -1.3485    -7.9324    -3.1566 C.2    1 <0>      -0.2300
18 C18      -2.7026    -8.4971    -3.2651 C.2    1 <0>       0.4100
19 O19      -2.9098    -9.4928    -3.9332 O.2    1 <0>      -0.4600
20 C20      -3.8016    -7.8303    -2.5465 C.2    1 <0>      -0.2100
21 C21      -3.5482    -6.7780    -1.7844 C.2    1 <0>      -0.0700
22 C22      -2.1887    -6.2012    -1.5836 C.3    1 <0>      -0.0300
23 C23      -1.8261    -6.3610    -0.1058 C.3    1 <0>      -0.1400
24 C24      -2.1921    -4.6962    -1.8629 C.3    1 <0>       0.1600
25 F25      -2.5557    -4.4763    -3.1958 F      1 <0>      -0.1900
26 C26      -3.2215    -4.0182    -0.9634 C.3    1 <0>       0.0900
27 H27      -4.2163    -4.3760    -1.2290 H      1 <0>       0.0700
28 O28      -2.9505    -4.3622     0.3969 O.3    1 <0>      -0.5400
29 C29      -3.1832    -2.4888    -1.1094 C.3    1 <0>      -0.1300
30 C30      -1.7556    -2.0128    -0.8383 C.3    1 <0>      -0.0400
31 C31      -1.2887    -2.5250     0.5258 C.3    1 <0>      -0.1400
32 H32      -1.3567     2.2755     0.3802 H      1 <0>       0.1000
33 H33      -2.8686     1.7187    -0.3764 H      1 <0>       0.0900
34 H34      -2.6963     1.6891     1.3950 H      1 <0>       0.0900
35 H35      -2.2008     1.0177    -2.0627 H      1 <0>       0.3800
36 H36       0.0464     0.1303    -2.3909 H      1 <0>       0.0900
37 H37       0.6132     0.0618    -0.6978 H      1 <0>       0.0700
38 H38       1.1264    -1.9491    -2.5519 H      1 <0>       0.0700
39 H39       0.9950    -2.2593    -0.7896 H      1 <0>       0.0800
40 H40      -0.1298    -4.6501    -3.6387 H      1 <0>       0.0700
41 H41       1.1962    -4.3596    -2.4886 H      1 <0>       0.0800
42 H42       2.1737    -6.5630    -3.3312 H      1 <0>       0.0600
43 H43       1.2236    -8.0582    -3.1583 H      1 <0>       0.0600
44 H44       0.7477    -6.8355    -4.3610 H      1 <0>       0.0600
45 H45      -0.5344    -8.3842    -3.7038 H      1 <0>       0.1400
46 H46      -4.8123    -8.1988    -2.6414 H      1 <0>       0.1400
47 H47      -4.3778    -6.3084    -1.2768 H      1 <0>       0.1300
48 H48      -1.4840    -7.3797     0.0763 H      1 <0>       0.0500
49 H49      -1.0323    -5.6597     0.1514 H      1 <0>       0.0800
50 H50      -2.7037    -6.1573     0.5077 H      1 <0>       0.1000
51 H51      -3.5642    -3.9683     1.0319 H      1 <0>       0.3800
52 H52      -3.4321    -2.2073    -2.1326 H      1 <0>       0.0900
53 H53      -3.8889    -2.0319    -0.4156 H      1 <0>       0.0700
54 H54      -1.1738    -3.6082     0.4872 H      1 <0>       0.0900
55 H55      -0.3323    -2.0669     0.7779 H      1 <0>       0.0600
56 H56      -2.0274    -2.2647     1.2839 H      1 <0>       0.0600
@<TRIPOS>BOND
1    1    2 1
2    1   32 1
3    1   33 1
4    1   34 1
5    2    3 2
6    2    4 1
7    4   30 1
8    4    5 1
9    4    6 1
10    5   35 1
11    6    7 1
12    6   36 1
13    6   37 1
14    7    8 1
15    7   38 1
16    7   39 1
17    8    9 1
18    8   30 1
19    8   10 1
20   10   11 1
21   10   24 1
22   10   12 1
23   12   13 1
24   12   40 1
25   12   41 1
26   13   14 1
27   13   15 1
28   13   16 1
29   15   42 1
30   15   43 1
31   15   44 1
32   16   22 1
33   16   17 2
34   17   18 1
35   17   45 1
36   18   19 2
37   18   20 1
38   20   21 2
39   20   46 1
40   21   22 1
41   21   47 1
42   22   23 1
43   22   24 1
44   23   48 1
45   23   49 1
46   23   50 1
47   24   25 1
48   24   26 1
49   26   27 1
50   26   28 1
51   26   29 1
52   28   51 1
53   29   30 1
54   29   52 1
55   29   53 1
56   30   31 1
57   31   54 1
58   31   55 1
59   31   56 1
