@<TRIPOS>MOLECULE
ZINC000100036536
49    52    1     0     0
SMALL
USER_CHARGES
@<TRIPOS>ATOM
1      C1      3.3530   -1.0567    1.4864 C.3      1 ZINC000100036536   -0.0400
2      N2      2.2122   -1.7939    0.9269 N.4      1 ZINC000100036536   -0.4000
3      H3      2.4233   -2.1215   -0.0038 H        1 ZINC000100036536    0.4200
4      C4      0.9924   -0.9433    0.9185 C.3      1 ZINC000100036536    0.0400
5      H5      1.1948    0.0646    0.5560 H        1 ZINC000100036536    0.1500
6      C6      0.5139   -0.9507    2.3886 C.3      1 ZINC000100036536   -0.1300
7      C7      1.0719   -2.2623    2.9792 C.3      1 ZINC000100036536   -0.1400
8      C8      1.8392   -2.9307    1.8102 C.3      1 ZINC000100036536    0.0400
9      H9      2.7084   -3.4910    2.1546 H        1 ZINC000100036536    0.1500
10     C10     0.8461   -3.8173    1.0419 C.3      1 ZINC000100036536   -0.1600
11     C11    -0.4316   -3.0158    0.7766 C.3      1 ZINC000100036536    0.0800
12     H12    -1.1000   -3.5984    0.1426 H        1 ZINC000100036536    0.0900
13     O13    -1.0808   -2.7320    2.0176 O.3      1 ZINC000100036536   -0.3500
14     C14    -2.0805   -3.6859    2.3819 C.3      1 ZINC000100036536    0.1700
15     C15    -2.2428   -3.6960    3.8802 C.ar     1 ZINC000100036536   -0.0900
16     C16    -2.2175   -2.5078    4.5862 C.ar     1 ZINC000100036536   -0.0900
17     C17    -2.3664   -2.5171    5.9604 C.ar     1 ZINC000100036536   -0.1200
18     C18    -2.5409   -3.7146    6.6287 C.ar     1 ZINC000100036536   -0.1100
19     C19    -2.5671   -4.9027    5.9225 C.ar     1 ZINC000100036536   -0.1200
20     C20    -2.4225   -4.8930    4.5478 C.ar     1 ZINC000100036536   -0.1100
21     C21    -3.3904   -3.3119    1.7373 C.ar     1 ZINC000100036536   -0.1200
22     C22    -3.7473   -1.9817    1.6184 C.ar     1 ZINC000100036536   -0.1000
23     C23    -4.9488   -1.6387    1.0271 C.ar     1 ZINC000100036536   -0.1200
24     C24    -5.7932   -2.6258    0.5544 C.ar     1 ZINC000100036536   -0.1100
25     C25    -5.4358   -3.9560    0.6725 C.ar     1 ZINC000100036536   -0.1200
26     C26    -4.2324   -4.2988    1.2599 C.ar     1 ZINC000100036536   -0.1100
27     C27    -0.0608   -1.6655    0.0630 C.3      1 ZINC000100036536   -0.1400
28     H28     4.2186   -1.7166    1.5449 H        1 ZINC000100036536    0.1200
29     H29     3.5866   -0.2071    0.8448 H        1 ZINC000100036536    0.1200
30     H30     3.1004   -0.6995    2.4847 H        1 ZINC000100036536    0.1200
31     H31     0.9186   -0.0915    2.9236 H        1 ZINC000100036536    0.0900
32     H32    -0.5752   -0.9477    2.4331 H        1 ZINC000100036536    0.1300
33     H33     1.7509   -2.0481    3.8045 H        1 ZINC000100036536    0.0800
34     H34     0.2571   -2.9043    3.3141 H        1 ZINC000100036536    0.1400
35     H35     1.2882   -4.1238    0.0939 H        1 ZINC000100036536    0.1000
36     H36     0.6072   -4.6986    1.6372 H        1 ZINC000100036536    0.1100
37     H37    -1.7783   -4.6766    2.0425 H        1 ZINC000100036536    0.0800
38     H38    -2.0812   -1.5723    4.0641 H        1 ZINC000100036536    0.1200
39     H39    -2.3459   -1.5889    6.5121 H        1 ZINC000100036536    0.1200
40     H40    -2.6565   -3.7219    7.7024 H        1 ZINC000100036536    0.1300
41     H41    -2.7031   -5.8383    6.4447 H        1 ZINC000100036536    0.1300
42     H42    -2.4430   -5.8213    3.9961 H        1 ZINC000100036536    0.1200
43     H43    -3.0876   -1.2105    1.9878 H        1 ZINC000100036536    0.1200
44     H44    -5.2280   -0.5995    0.9349 H        1 ZINC000100036536    0.1200
45     H45    -6.7322   -2.3578    0.0930 H        1 ZINC000100036536    0.1300
46     H46    -6.0957   -4.7272    0.3034 H        1 ZINC000100036536    0.1300
47     H47    -3.9532   -5.3380    1.3522 H        1 ZINC000100036536    0.1200
48     H48    -0.9519   -1.0446   -0.0291 H        1 ZINC000100036536    0.1200
49     H49     0.3442   -1.8750   -0.9271 H        1 ZINC000100036536    0.1000
@<TRIPOS>BOND
1     1     2     1
2     1     28    1
3     1     29    1
4     1     30    1
5     2     3     1
6     2     8     1
7     2     4     1
8     4     5     1
9     4     27    1
10    4     6     1
11    6     7     1
12    6     31    1
13    6     32    1
14    7     8     1
15    7     33    1
16    7     34    1
17    8     9     1
18    8     10    1
19    10    11    1
20    10    35    1
21    10    36    1
22    11    12    1
23    11    13    1
24    11    27    1
25    13    14    1
26    14    15    1
27    14    21    1
28    14    37    1
29    15    20    ar
30    15    16    ar
31    16    17    ar
32    16    38    1
33    17    18    ar
34    17    39    1
35    18    19    ar
36    18    40    1
37    19    20    ar
38    19    41    1
39    20    42    1
40    21    26    ar
41    21    22    ar
42    22    23    ar
43    22    43    1
44    23    24    ar
45    23    44    1
46    24    25    ar
47    24    45    1
48    25    26    ar
49    25    46    1
50    26    47    1
51    27    48    1
52    27    49    1
@<TRIPOS>SUBSTRUCTURE
1   ZINC000100036536 1     RESIDUE    1   A     ZIN   1
