@<TRIPOS>MOLECULE
ZINC000169289767
82    87    1     0     0
SMALL
USER_CHARGES
@<TRIPOS>ATOM
1      C1     -0.0184    1.5028    0.0103 C.3      1 ZINC000169289767   -0.1200
2      C2      0.0021   -0.0041    0.0020 C.ar     1 ZINC000169289767   -0.1300
3      C3      0.0057   -0.6859   -1.1950 C.ar     1 ZINC000169289767   -0.0800
4      C4      0.0246   -2.0809   -1.2022 C.ar     1 ZINC000169289767   -0.0600
5      C5      0.0290   -2.8163   -2.4893 C.ar     1 ZINC000169289767   -0.0600
6      C6      0.0201   -2.1144   -3.6945 C.ar     1 ZINC000169289767   -0.0900
7      C7      0.0247   -2.7997   -4.8901 C.ar     1 ZINC000169289767   -0.1300
8      C8      0.0383   -4.1911   -4.8953 C.ar     1 ZINC000169289767    0.1700
9      N9      0.0434   -4.8819   -6.1043 N.pl3    1 ZINC000169289767   -0.4900
10     N10     0.0356   -4.2320   -7.2186 N.2      1 ZINC000169289767   -0.1200
11     C11     0.0404   -4.8885   -8.3676 C.2      1 ZINC000169289767    0.0100
12     C12     0.0485   -6.3705   -8.4190 C.2      1 ZINC000169289767    0.4300
13     O13    -0.5366   -7.0532   -7.5948 O.2      1 ZINC000169289767   -0.4900
14     C14     0.8086   -6.9622   -9.5300 C.ar     1 ZINC000169289767   -0.2100
15     C15     1.3005   -8.2721   -9.4636 C.ar     1 ZINC000169289767    0.2500
16     N16     1.0732   -9.0504   -8.3352 N.pl3    1 ZINC000169289767   -0.8700
17     C17     2.0168   -8.7854  -10.5359 C.ar     1 ZINC000169289767   -0.1200
18     C18     2.2441   -8.0112  -11.6618 C.ar     1 ZINC000169289767   -0.5900
19     S19     3.1586   -8.6860  -13.0083 S.o2     1 ZINC000169289767    2.7000
20     O20     3.8404   -7.5736  -13.6515 O.co2    1 ZINC000169289767   -1.0600
21     O21     4.0937   -9.6452  -12.4413 O.co2    1 ZINC000169289767   -1.0700
22     O22     2.1947   -9.3211  -13.8935 O.co2    1 ZINC000169289767   -1.0600
23     C23     1.7664   -6.7212  -11.7449 C.ar     1 ZINC000169289767   -0.0800
24     C24     1.0387   -6.1751  -10.6822 C.ar     1 ZINC000169289767    0.0000
25     C25     0.5191   -4.8118  -10.7560 C.2      1 ZINC000169289767   -0.0100
26     C26     0.0318   -4.1862   -9.6599 C.2      1 ZINC000169289767   -0.5900
27     S27    -0.5933   -2.5431   -9.7788 S.o2     1 ZINC000169289767    2.7000
28     O28     0.0421   -1.7749   -8.7194 O.co2    1 ZINC000169289767   -1.0400
29     O29    -0.2339   -2.0521  -11.1000 O.co2    1 ZINC000169289767   -1.0700
30     O30    -2.0346   -2.6289   -9.6017 O.co2    1 ZINC000169289767   -1.0600
31     C31     0.0472   -4.8932   -3.6935 C.ar     1 ZINC000169289767   -0.1300
32     C32     0.0619   -6.4001   -3.7018 C.3      1 ZINC000169289767   -0.1200
33     C33     0.0480   -4.2113   -2.4965 C.ar     1 ZINC000169289767   -0.0800
34     C34     0.0398   -2.7827    0.0030 C.ar     1 ZINC000169289767   -0.0900
35     C35     0.0362   -2.0974    1.1985 C.ar     1 ZINC000169289767   -0.1300
36     C36     0.0230   -0.7060    1.2038 C.ar     1 ZINC000169289767    0.1700
37     N37     0.0194   -0.0151    2.4127 N.pl3    1 ZINC000169289767   -0.4900
38     N38     0.0282   -0.6650    3.5270 N.2      1 ZINC000169289767   -0.1200
39     C39     0.0247   -0.0085    4.6760 C.2      1 ZINC000169289767    0.0100
40     C40     0.0046    1.4734    4.7274 C.2      1 ZINC000169289767    0.4300
41     O41    -0.5966    2.1447    3.9054 O.2      1 ZINC000169289767   -0.4900
42     C42     0.7573    2.0796    5.8355 C.ar     1 ZINC000169289767   -0.2100
43     C43     1.2237    3.3988    5.7673 C.ar     1 ZINC000169289767    0.2500
44     N44     0.9773    4.1724    4.6398 N.pl3    1 ZINC000169289767   -0.8700
45     C45     1.9340    3.9257    6.8370 C.ar     1 ZINC000169289767   -0.1200
46     C46     2.1803    3.1561    7.9620 C.ar     1 ZINC000169289767   -0.5900
47     S47     3.0867    3.8484    9.3051 S.o2     1 ZINC000169289767    2.7000
48     O48     3.7921    2.7493    9.9458 O.co2    1 ZINC000169289767   -1.0600
49     O49     4.0012    4.8253    8.7347 O.co2    1 ZINC000169289767   -1.0700
50     O50     2.1141    4.4649   10.1940 O.co2    1 ZINC000169289767   -1.0600
51     C51     1.7277    1.8572    8.0469 C.ar     1 ZINC000169289767   -0.0800
52     C52     1.0067    1.2971    6.9869 C.ar     1 ZINC000169289767    0.0000
53     C53     0.5136   -0.0759    7.0627 C.2      1 ZINC000169289767   -0.0100
54     C54     0.0344   -0.7108    5.9684 C.2      1 ZINC000169289767   -0.5900
55     S55    -0.5586   -2.3655    6.0895 S.o2     1 ZINC000169289767    2.7000
56     O56     0.0875   -3.1214    5.0278 O.co2    1 ZINC000169289767   -1.0400
57     O57    -0.1849   -2.8495    7.4094 O.co2    1 ZINC000169289767   -1.0700
58     O58    -2.0020   -2.3075    5.9178 O.co2    1 ZINC000169289767   -1.0600
59     H59     1.0042    1.8801    0.0026 H        1 ZINC000169289767    0.0700
60     H60    -0.5455    1.8639   -0.8728 H        1 ZINC000169289767    0.0700
61     H61    -0.5286    1.8543    0.9071 H        1 ZINC000169289767    0.0600
62     H62    -0.0065   -0.1409   -2.1273 H        1 ZINC000169289767    0.1300
63     H63     0.0093   -1.0345   -3.6908 H        1 ZINC000169289767    0.1300
64     H64     0.0175   -2.2566   -5.8235 H        1 ZINC000169289767    0.1600
65     H65     0.0528   -5.8519   -6.1086 H        1 ZINC000169289767    0.3900
66     H66     0.5717   -8.6871   -7.5885 H        1 ZINC000169289767    0.4100
67     H67     1.4159   -9.9569   -8.2941 H        1 ZINC000169289767    0.4000
68     H68     2.3995   -9.7943  -10.4920 H        1 ZINC000169289767    0.1400
69     H69     1.9537   -6.1319  -12.6304 H        1 ZINC000169289767    0.1400
70     H70     0.5210   -4.2942  -11.7040 H        1 ZINC000169289767    0.1600
71     H71     1.0930   -6.7534   -3.7056 H        1 ZINC000169289767    0.0700
72     H72    -0.4468   -6.7733   -2.8129 H        1 ZINC000169289767    0.0700
73     H73    -0.4500   -6.7635   -4.5929 H        1 ZINC000169289767    0.0600
74     H74     0.0549   -4.7564   -1.5642 H        1 ZINC000169289767    0.1300
75     H75     0.0541   -3.8626   -0.0007 H        1 ZINC000169289767    0.1300
76     H76     0.0476   -2.6405    2.1319 H        1 ZINC000169289767    0.1600
77     H77     0.0102    0.9548    2.4170 H        1 ZINC000169289767    0.3900
78     H78     0.4801    3.7996    3.8950 H        1 ZINC000169289767    0.4100
79     H79     1.3024    5.0853    4.5974 H        1 ZINC000169289767    0.4000
80     H80     2.2971    4.9418    6.7917 H        1 ZINC000169289767    0.1400
81     H81     1.9297    1.2717    8.9317 H        1 ZINC000169289767    0.1400
82     H82     0.5290   -0.5932    8.0106 H        1 ZINC000169289767    0.1600
@<TRIPOS>BOND
1     1     2     1
2     1     59    1
3     1     60    1
4     1     61    1
5     2     36    ar
6     2     3     ar
7     3     4     ar
8     3     62    1
9     4     5     1
10    4     34    ar
11    5     33    ar
12    5     6     ar
13    6     7     ar
14    6     63    1
15    7     8     ar
16    7     64    1
17    8     9     1
18    8     31    ar
19    9     10    1
20    9     65    1
21    10    11    2
22    11    26    1
23    11    12    1
24    12    13    2
25    12    14    1
26    14    24    ar
27    14    15    ar
28    15    16    1
29    15    17    ar
30    16    66    1
31    16    67    1
32    17    18    ar
33    17    68    1
34    18    19    1
35    18    23    ar
36    19    20    ar
37    19    21    ar
38    19    22    ar
39    23    24    ar
40    23    69    1
41    24    25    1
42    25    26    2
43    25    70    1
44    26    27    1
45    27    28    ar
46    27    29    ar
47    27    30    ar
48    31    32    1
49    31    33    ar
50    32    71    1
51    32    72    1
52    32    73    1
53    33    74    1
54    34    35    ar
55    34    75    1
56    35    36    ar
57    35    76    1
58    36    37    1
59    37    38    1
60    37    77    1
61    38    39    2
62    39    54    1
63    39    40    1
64    40    41    2
65    40    42    1
66    42    52    ar
67    42    43    ar
68    43    44    1
69    43    45    ar
70    44    78    1
71    44    79    1
72    45    46    ar
73    45    80    1
74    46    47    1
75    46    51    ar
76    47    48    ar
77    47    49    ar
78    47    50    ar
79    51    52    ar
80    51    81    1
81    52    53    1
82    53    54    2
83    53    82    1
84    54    55    1
85    55    56    ar
86    55    57    ar
87    55    58    ar
@<TRIPOS>SUBSTRUCTURE
1   ZINC000169289767 1     RESIDUE    1   A     ZIN   1
