@<TRIPOS>MOLECULE
ZINC000000002191
33   34    0    0    0
SMALL
USER_CHARGES
NO_NAME
@<TRIPOS>ATOM
1 C1       -1.0810     1.3884     0.0492 C.3    1 <0>      -0.1200
2 C2       -0.7814    -0.0884     0.0310 C.ar   1 <0>      -0.0700
3 C3       -1.3060    -0.9098     1.0133 C.ar   1 <0>      -0.1300
4 C4       -1.0361    -2.2625     1.0023 C.ar   1 <0>      -0.0700
5 C5       -0.2316    -2.8024    -0.0030 C.ar   1 <0>      -0.1400
6 C6        0.0616    -4.2518    -0.0214 C.2    1 <0>       0.4700
7 O7        0.1974    -4.8318    -1.0829 O.2    1 <0>      -0.4800
8 C8        0.1885    -4.9893     1.2376 C.2    1 <0>      -0.1100
9 C9        0.1939    -4.4438     2.5071 C.2    1 <0>      -0.1200
10 C10       0.3347    -5.5025     3.4076 C.2    1 <0>      -0.2200
11 C11       0.4113    -6.6512     2.6915 C.2    1 <0>       0.1300
12 C12       0.5676    -8.0345     3.2684 C.3    1 <0>      -0.1400
13 C13      -0.7875    -8.5806     3.6381 C.2    1 <0>       0.5000
14 O14      -1.7874    -7.9087     3.4505 O.co2  1 <0>      -0.6800
15 O15      -0.8839    -9.6943     4.1249 O.co2  1 <0>      -0.7000
16 N16       0.3183    -6.3535     1.3726 N.pl3  1 <0>      -0.4100
17 C17       0.3579    -7.3210     0.2733 C.3    1 <0>       0.0700
18 C18       0.2945    -1.9680    -0.9910 C.ar   1 <0>      -0.0700
19 C19       0.0124    -0.6179    -0.9712 C.ar   1 <0>      -0.1300
20 H20      -1.9887     1.5821    -0.5223 H      1 <0>       0.0700
21 H21      -1.2225     1.7178     1.0786 H      1 <0>       0.0700
22 H22      -0.2484     1.9336    -0.3954 H      1 <0>       0.0700
23 H23      -1.9278    -0.4908     1.7906 H      1 <0>       0.1300
24 H24      -1.4458    -2.9024     1.7697 H      1 <0>       0.1400
25 H25       0.1062    -3.3966     2.7561 H      1 <0>       0.1400
26 H26       0.3759    -5.4203     4.4837 H      1 <0>       0.1400
27 H27       1.0325    -8.6863     2.5288 H      1 <0>       0.0700
28 H28       1.1957    -7.9884     4.1580 H      1 <0>       0.0900
29 H29      -0.6540    -7.6595     0.0505 H      1 <0>       0.0700
30 H30       0.7861    -6.8489    -0.6109 H      1 <0>       0.1000
31 H31       0.9711    -8.1745     0.5624 H      1 <0>       0.0800
32 H32       0.9178    -2.3793    -1.7712 H      1 <0>       0.1300
33 H33       0.4187     0.0287    -1.7349 H      1 <0>       0.1300
@<TRIPOS>BOND
1    1    2 1
2    1   20 1
3    1   21 1
4    1   22 1
5    2   19 ar
6    2    3 ar
7    3    4 ar
8    3   23 1
9    4    5 ar
10    4   24 1
11    5    6 1
12    5   18 ar
13    6    7 2
14    6    8 1
15    8   16 1
16    8    9 2
17    9   10 1
18    9   25 1
19   10   11 2
20   10   26 1
21   11   12 1
22   11   16 1
23   12   13 1
24   12   27 1
25   12   28 1
26   13   14 ar
27   13   15 ar
28   16   17 1
29   17   29 1
30   17   30 1
31   17   31 1
32   18   19 ar
33   18   32 1
34   19   33 1
