@<TRIPOS>MOLECULE
ZINC000001530579
56    59    1     0     0
SMALL
USER_CHARGES
@<TRIPOS>ATOM
1      C1     -0.0173    1.4248    0.0099 C.3      1 ZINC000001530579    0.0300
2      O2      0.0021   -0.0041    0.0020 O.3      1 ZINC000001530579   -0.3100
3      C3     -1.2011   -0.6379    0.0101 C.ar     1 ZINC000001530579    0.1000
4      C4     -2.3739    0.0992    0.0195 C.ar     1 ZINC000001530579   -0.1700
5      C5     -3.5965   -0.5469    0.0272 C.ar     1 ZINC000001530579   -0.1200
6      C6     -3.6519   -1.9279    0.0261 C.ar     1 ZINC000001530579   -0.1200
7      C7     -2.4848   -2.6697    0.0172 C.ar     1 ZINC000001530579   -0.1700
8      C8     -1.2569   -2.0287    0.0032 C.ar     1 ZINC000001530579    0.1000
9      O9     -0.1082   -2.7567   -0.0056 O.3      1 ZINC000001530579   -0.3100
10     C10    -0.2418   -4.1795    0.0004 C.3      1 ZINC000001530579    0.0600
11     C11     1.1466   -4.8221   -0.0110 C.3      1 ZINC000001530579    0.0600
12     N12     1.8490   -4.4925    1.2364 N.3      1 ZINC000001530579   -0.6800
13     C13     3.1889   -5.0942    1.2609 C.3      1 ZINC000001530579    0.0300
14     C14     3.8878   -4.7295    2.5722 C.3      1 ZINC000001530579    0.1100
15     H15     3.3045   -5.1072    3.4120 H        1 ZINC000001530579    0.1200
16     O16     4.0018   -3.3086    2.6721 O.3      1 ZINC000001530579   -0.5500
17     C17     5.2833   -5.3562    2.5978 C.3      1 ZINC000001530579    0.0300
18     O18     5.8910   -5.1141    3.8682 O.3      1 ZINC000001530579   -0.3000
19     C19     7.1424   -5.6079    4.0575 C.ar     1 ZINC000001530579    0.1900
20     C20     7.7753   -6.3048    3.0435 C.ar     1 ZINC000001530579   -0.2500
21     C21     9.0516   -6.8088    3.2360 C.ar     1 ZINC000001530579   -0.0400
22     C22     9.7057   -6.6243    4.4352 C.ar     1 ZINC000001530579   -0.1800
23     C23     9.0872   -5.9265    5.4691 C.ar     1 ZINC000001530579    0.1800
24     C24     7.7987   -5.4096    5.2752 C.ar     1 ZINC000001530579   -0.1400
25     C25     7.4243   -4.7352    6.5313 C.ar     1 ZINC000001530579   -0.0900
26     C26     8.5117   -4.8880    7.4042 C.ar     1 ZINC000001530579    0.1300
27     C27     8.4408   -4.3445    8.6832 C.ar     1 ZINC000001530579   -0.1400
28     C28     7.3106   -3.6638    9.0820 C.ar     1 ZINC000001530579   -0.0900
29     C29     6.2365   -3.5139    8.2182 C.ar     1 ZINC000001530579   -0.1500
30     C30     6.2883   -4.0445    6.9472 C.ar     1 ZINC000001530579   -0.0600
31     N31     9.5005   -5.6000    6.7484 N.pl3    1 ZINC000001530579   -0.6100
32     H32     1.0053    1.8021    0.0021 H        1 ZINC000001530579    0.1000
33     H33    -0.5445    1.7859   -0.8732 H        1 ZINC000001530579    0.0500
34     H34    -0.5275    1.7763    0.9067 H        1 ZINC000001530579    0.0600
35     H35    -2.3334    1.1784    0.0211 H        1 ZINC000001530579    0.1300
36     H36    -4.5102    0.0290    0.0345 H        1 ZINC000001530579    0.1300
37     H37    -4.6086   -2.4288    0.0325 H        1 ZINC000001530579    0.1300
38     H38    -2.5308   -3.7487    0.0170 H        1 ZINC000001530579    0.1300
39     H39    -0.7787   -4.4902    0.8967 H        1 ZINC000001530579    0.0700
40     H40    -0.7960   -4.4961   -0.8832 H        1 ZINC000001530579    0.0700
41     H41     1.0455   -5.9041   -0.0960 H        1 ZINC000001530579    0.0900
42     H42     1.7157   -4.4426   -0.8596 H        1 ZINC000001530579    0.0400
43     H43     1.8986   -3.4936    1.3704 H        1 ZINC000001530579    0.3600
44     H44     3.1019   -6.1780    1.1847 H        1 ZINC000001530579    0.0900
45     H45     3.7722   -4.7165    0.4211 H        1 ZINC000001530579    0.0400
46     H46     4.5097   -2.9034    1.9559 H        1 ZINC000001530579    0.3700
47     H47     5.2023   -6.4305    2.4326 H        1 ZINC000001530579    0.0700
48     H48     5.8951   -4.9129    1.8120 H        1 ZINC000001530579    0.0700
49     H49     7.2731   -6.4567    2.0996 H        1 ZINC000001530579    0.1300
50     H50     9.5382   -7.3515    2.4392 H        1 ZINC000001530579    0.1300
51     H51    10.7001   -7.0222    4.5732 H        1 ZINC000001530579    0.1300
52     H52     9.2718   -4.4563    9.3639 H        1 ZINC000001530579    0.1200
53     H53     7.2611   -3.2440   10.0758 H        1 ZINC000001530579    0.1300
54     H54     5.3560   -2.9791    8.5424 H        1 ZINC000001530579    0.1300
55     H55     5.4501   -3.9266    6.2764 H        1 ZINC000001530579    0.1300
56     H56    10.3580   -5.8408    7.1325 H        1 ZINC000001530579    0.4200
@<TRIPOS>BOND
1     1     2     1
2     1     32    1
3     1     33    1
4     1     34    1
5     2     3     1
6     3     8     ar
7     3     4     ar
8     4     5     ar
9     4     35    1
10    5     6     ar
11    5     36    1
12    6     7     ar
13    6     37    1
14    7     8     ar
15    7     38    1
16    8     9     1
17    9     10    1
18    10    11    1
19    10    39    1
20    10    40    1
21    11    12    1
22    11    41    1
23    11    42    1
24    12    13    1
25    12    43    1
26    13    14    1
27    13    44    1
28    13    45    1
29    14    15    1
30    14    16    1
31    14    17    1
32    16    46    1
33    17    18    1
34    17    47    1
35    17    48    1
36    18    19    1
37    19    24    ar
38    19    20    ar
39    20    21    ar
40    20    49    1
41    21    22    ar
42    21    50    1
43    22    23    ar
44    22    51    1
45    23    31    1
46    23    24    ar
47    24    25    1
48    25    30    ar
49    25    26    ar
50    26    27    ar
51    26    31    1
52    27    28    ar
53    27    52    1
54    28    29    ar
55    28    53    1
56    29    30    ar
57    29    54    1
58    30    55    1
59    31    56    1
@<TRIPOS>SUBSTRUCTURE
1   ZINC000001530579 1     RESIDUE    1   A     ZIN   1
