@<TRIPOS>MOLECULE
ZINC000034806477
48    50    1     0     0
SMALL
USER_CHARGES
@<TRIPOS>ATOM
1      C1      1.2509    1.5264   -0.7488 C.3      1 ZINC000034806477    0.0900
2      N2      0.9808    0.0901   -0.8503 N.am     1 ZINC000034806477   -0.7300
3      C3      1.9542   -0.7999   -0.5733 C.2      1 ZINC000034806477    0.5500
4      O4      3.0568   -0.4107   -0.2391 O.2      1 ZINC000034806477   -0.5100
5      C5      1.6824   -2.2453   -0.6754 C.ar     1 ZINC000034806477   -0.1500
6      C6      0.4172   -2.6948   -1.0649 C.ar     1 ZINC000034806477   -0.0500
7      C7      0.1667   -4.0445   -1.1592 C.ar     1 ZINC000034806477   -0.1100
8      C8      1.1704   -4.9640   -0.8670 C.ar     1 ZINC000034806477    0.2000
9      N9      0.9111   -6.3297   -0.9637 N.am     1 ZINC000034806477   -0.5200
10     C10     0.5469   -7.1515    0.0371 C.2      1 ZINC000034806477    0.5300
11     S11     0.3332   -6.6414    1.6574 S.2      1 ZINC000034806477   -0.4900
12     N12     0.3703   -8.4120   -0.3752 N.am     1 ZINC000034806477   -0.5000
13     C13    -0.0099   -9.4660    0.4612 C.ar     1 ZINC000034806477    0.1400
14     C14     0.9568  -10.3095    0.9969 C.ar     1 ZINC000034806477   -0.0500
15     C15     0.5862  -11.3489    1.8212 C.ar     1 ZINC000034806477   -0.0600
16     C16    -0.7635  -11.5551    2.1189 C.ar     1 ZINC000034806477    0.0500
17     C17    -1.1528  -12.6343    2.9758 C.1      1 ZINC000034806477    0.2300
18     N18    -1.4617  -13.4904    3.6557 N.1      1 ZINC000034806477   -0.3600
19     C19    -1.7325  -10.7050    1.5784 C.ar     1 ZINC000034806477   -0.1300
20     C20    -3.1893  -10.9227    1.8967 C.3      1 ZINC000034806477    0.5100
21     F21    -3.9590   -9.9532    1.2449 F        1 ZINC000034806477   -0.1700
22     F22    -3.5765  -12.1949    1.4623 F        1 ZINC000034806477   -0.1700
23     F23    -3.3849  -10.8221    3.2783 F        1 ZINC000034806477   -0.1700
24     C24    -1.3537   -9.6646    0.7597 C.ar     1 ZINC000034806477   -0.0300
25     C25     0.6033   -8.5401   -1.6963 C.2      1 ZINC000034806477    0.5200
26     O26     0.5259   -9.5526   -2.3588 O.2      1 ZINC000034806477   -0.4200
27     C27     0.9762   -7.1538   -2.1830 C.3      1 ZINC000034806477    0.1100
28     C28    -0.0274   -6.6620   -3.2279 C.3      1 ZINC000034806477   -0.1500
29     C29     2.3959   -7.1473   -2.7533 C.3      1 ZINC000034806477   -0.1500
30     C30     2.4310   -4.5234   -0.4795 C.ar     1 ZINC000034806477   -0.1300
31     C31     2.6925   -3.1718   -0.3880 C.ar     1 ZINC000034806477    0.1800
32     F32     3.9171   -2.7432   -0.0114 F        1 ZINC000034806477   -0.1000
33     H33     1.5471    1.7692    0.2717 H        1 ZINC000034806477    0.0600
34     H34     2.0552    1.7941   -1.4340 H        1 ZINC000034806477    0.0600
35     H35     0.3514    2.0845   -1.0087 H        1 ZINC000034806477    0.0800
36     H36     0.1013   -0.2203   -1.1168 H        1 ZINC000034806477    0.4000
37     H37    -0.3630   -1.9833   -1.2913 H        1 ZINC000034806477    0.1500
38     H38    -0.8108   -4.3914   -1.4601 H        1 ZINC000034806477    0.1400
39     H39     1.9997  -10.1497    0.7661 H        1 ZINC000034806477    0.1500
40     H40     1.3377  -12.0039    2.2367 H        1 ZINC000034806477    0.1600
41     H41    -2.1018   -9.0073    0.3417 H        1 ZINC000034806477    0.1600
42     H42    -1.0272   -6.6498   -2.7938 H        1 ZINC000034806477    0.0700
43     H43     0.2430   -5.6551   -3.5458 H        1 ZINC000034806477    0.0900
44     H44    -0.0131   -7.3309   -4.0884 H        1 ZINC000034806477    0.1000
45     H45     2.4478   -7.8237   -3.6065 H        1 ZINC000034806477    0.1000
46     H46     2.6542   -6.1379   -3.0736 H        1 ZINC000034806477    0.0900
47     H47     3.0972   -7.4757   -1.9862 H        1 ZINC000034806477    0.0700
48     H48     3.2071   -5.2397   -0.2537 H        1 ZINC000034806477    0.1500
@<TRIPOS>BOND
1     1     2     1
2     1     33    1
3     1     34    1
4     1     35    1
5     2     3     am
6     2     36    1
7     3     4     2
8     3     5     1
9     5     31    ar
10    5     6     ar
11    6     7     ar
12    6     37    1
13    7     8     ar
14    7     38    1
15    8     9     1
16    8     30    ar
17    9     27    1
18    9     10    am
19    10    11    2
20    10    12    am
21    12    13    1
22    12    25    am
23    13    24    ar
24    13    14    ar
25    14    15    ar
26    14    39    1
27    15    16    ar
28    15    40    1
29    16    17    1
30    16    19    ar
31    17    18    3
32    19    20    1
33    19    24    ar
34    20    21    1
35    20    22    1
36    20    23    1
37    24    41    1
38    25    26    2
39    25    27    1
40    27    28    1
41    27    29    1
42    28    42    1
43    28    43    1
44    28    44    1
45    29    45    1
46    29    46    1
47    29    47    1
48    30    31    ar
49    30    48    1
50    31    32    1
@<TRIPOS>SUBSTRUCTURE
1   ZINC000034806477 1     RESIDUE    1   A     ZIN   1
