@<TRIPOS>MOLECULE
ZINC000034781704
37    39    1     0     0
SMALL
USER_CHARGES
@<TRIPOS>ATOM
1      C1      0.6851    1.4473    0.1974 C.3      1 ZINC000034781704    0.0300
2      O2      0.4098    0.0245    0.1075 O.3      1 ZINC000034781704   -0.3500
3      C3      0.9027   -0.6254   -0.9586 C.2      1 ZINC000034781704    0.4400
4      O4      1.5431   -0.0252   -1.7890 O.2      1 ZINC000034781704   -0.5000
5      C5      0.6575   -2.1036   -1.1196 C.3      1 ZINC000034781704    0.1400
6      H6     -0.4151   -2.2905   -1.1701 H        1 ZINC000034781704    0.1300
7      C7      1.2411   -2.8408    0.0581 C.ar     1 ZINC000034781704   -0.0700
8      C8      2.1561   -2.2133    0.8819 C.ar     1 ZINC000034781704   -0.1000
9      C9      2.6916   -2.8896    1.9624 C.ar     1 ZINC000034781704   -0.1100
10     C10     2.3125   -4.1937    2.2190 C.ar     1 ZINC000034781704   -0.1000
11     C11     1.3973   -4.8226    1.3956 C.ar     1 ZINC000034781704   -0.1100
12     C12     0.8566   -4.1444    0.3180 C.ar     1 ZINC000034781704    0.0000
13     Cl13   -0.2928   -4.9334   -0.7164 Cl       1 ZINC000034781704   -0.0500
14     N14     1.2953   -2.5738   -2.3566 N.3      1 ZINC000034781704   -0.4900
15     C15     2.7412   -2.3102   -2.3369 C.3      1 ZINC000034781704    0.0400
16     C16     3.4193   -3.1518   -3.4249 C.3      1 ZINC000034781704   -0.0400
17     C17     2.6482   -2.9624   -4.7141 C.2      1 ZINC000034781704   -0.1700
18     C18     1.4097   -2.4343   -4.7801 C.2      1 ZINC000034781704   -0.1000
19     C19     0.9043   -2.3578   -6.0728 C.2      1 ZINC000034781704   -0.1200
20     C20     1.7060   -2.8113   -7.0325 C.2      1 ZINC000034781704   -0.2100
21     S21     3.2091   -3.3842   -6.3236 S.3      1 ZINC000034781704    0.1000
22     C22     0.6596   -1.9742   -3.5375 C.3      1 ZINC000034781704    0.1100
23     H23     1.7627    1.6075    0.2293 H        1 ZINC000034781704    0.0600
24     H24     0.2680    1.9538   -0.6730 H        1 ZINC000034781704    0.0600
25     H25     0.2311    1.8486    1.1035 H        1 ZINC000034781704    0.1000
26     H26     2.4532   -1.1945    0.6814 H        1 ZINC000034781704    0.1200
27     H27     3.4067   -2.3987    2.6059 H        1 ZINC000034781704    0.1300
28     H28     2.7317   -4.7218    3.0628 H        1 ZINC000034781704    0.1400
29     H29     1.1012   -5.8416    1.5963 H        1 ZINC000034781704    0.1400
30     H30     2.9215   -1.2525   -2.5289 H        1 ZINC000034781704    0.0700
31     H31     3.1475   -2.5792   -1.3619 H        1 ZINC000034781704    0.0800
32     H32     4.4487   -2.8194   -3.5594 H        1 ZINC000034781704    0.0800
33     H33     3.4057   -4.2035   -3.1388 H        1 ZINC000034781704    0.0900
34     H34    -0.0759   -1.9565   -6.2842 H        1 ZINC000034781704    0.1400
35     H35     1.4697   -2.8250   -8.0862 H        1 ZINC000034781704    0.1600
36     H36    -0.3797   -2.2972   -3.5971 H        1 ZINC000034781704    0.0900
37     H37     0.7040   -0.8875   -3.4648 H        1 ZINC000034781704    0.0700
@<TRIPOS>BOND
1     1     2     1
2     1     23    1
3     1     24    1
4     1     25    1
5     2     3     1
6     3     4     2
7     3     5     1
8     5     6     1
9     5     7     1
10    5     14    1
11    7     12    ar
12    7     8     ar
13    8     9     ar
14    8     26    1
15    9     10    ar
16    9     27    1
17    10    11    ar
18    10    28    1
19    11    12    ar
20    11    29    1
21    12    13    1
22    14    22    1
23    14    15    1
24    15    16    1
25    15    30    1
26    15    31    1
27    16    17    1
28    16    32    1
29    16    33    1
30    17    21    1
31    17    18    2
32    18    19    1
33    18    22    1
34    19    20    2
35    19    34    1
36    20    21    1
37    20    35    1
38    22    36    1
39    22    37    1
@<TRIPOS>SUBSTRUCTURE
1   ZINC000034781704 1     RESIDUE    1   A     ZIN   1
