@<TRIPOS>MOLECULE
ZINC000100008319
48   52    0    0    0
SMALL
USER_CHARGES
NO_NAME
@<TRIPOS>ATOM
1 C1       -0.0206     1.4611     0.1062 C.3    1 <0>      -0.0600
2 N2        0.0021    -0.0041     0.0020 N.4    1 <0>      -0.2800
3 C3       -1.3647    -0.5392    -0.0576 C.3    1 <0>      -0.0600
4 C4        0.7878    -0.4325    -1.1857 C.3    1 <0>       0.0500
5 H5        0.5468     0.1532    -2.0728 H      1 <0>       0.1600
6 C6        0.5208    -1.9321    -1.3919 C.3    1 <0>      -0.1400
7 C7        1.0609    -2.7024    -0.1836 C.3    1 <0>       0.0700
8 H8        0.7842    -3.7531    -0.2702 H      1 <0>       0.1200
9 O9        2.5077    -2.5858    -0.1439 O.3    1 <0>      -0.3400
10 C10       3.1872    -3.6110     0.3936 C.2    1 <0>       0.4400
11 O11       2.5928    -4.5741     0.8168 O.2    1 <0>      -0.4600
12 C12       4.6915    -3.5610     0.4691 C.3    1 <0>       0.3200
13 O13       5.1118    -2.2166     0.7100 O.3    1 <0>      -0.5100
14 C14       5.1677    -4.4452     1.5927 C.2    1 <0>      -0.2400
15 C15       5.3430    -4.0556     2.8563 C.2    1 <0>      -0.1000
16 C16       5.7884    -5.0454     3.7154 C.2    1 <0>      -0.1400
17 C17       5.9747    -6.2388     3.1495 C.2    1 <0>      -0.1900
18 S18       5.5701    -6.1505     1.4400 S.3    1 <0>       0.1600
19 C19       5.2762    -4.0445    -0.8330 C.2    1 <0>      -0.2300
20 C20       5.5649    -3.2709    -1.8805 C.2    1 <0>      -0.0700
21 C21       6.0959    -3.9391    -2.9703 C.2    1 <0>      -0.1500
22 C22       6.2385    -5.2553    -2.8077 C.2    1 <0>      -0.1900
23 S23       5.6894    -5.7140    -1.2010 S.3    1 <0>       0.1500
24 C24       0.4688    -2.1242     1.1049 C.3    1 <0>      -0.1600
25 C25       0.7479    -0.5987     1.1429 C.3    1 <0>       0.0400
26 H26       0.4690    -0.1540     2.0982 H      1 <0>       0.1600
27 C27       2.2427    -0.3831     0.8120 C.3    1 <0>       0.0000
28 H28       2.9796    -0.9461     1.3848 H      1 <0>       0.1700
29 O29       2.6173     0.8382     0.1716 O.3    1 <0>      -0.3100
30 C30       2.2608    -0.2555    -0.7507 C.3    1 <0>      -0.0100
31 H31       3.0279    -0.7125    -1.3760 H      1 <0>       0.1900
32 H32       1.0007     1.8418     0.0971 H      1 <0>       0.1400
33 H33      -0.5709     1.8769    -0.7378 H      1 <0>       0.1200
34 H34      -0.5084     1.7516     1.0367 H      1 <0>       0.1200
35 H35      -1.8827    -0.1175    -0.9190 H      1 <0>       0.1300
36 H36      -1.3262    -1.6244    -0.1522 H      1 <0>       0.1300
37 H37      -1.8993    -0.2727     0.8541 H      1 <0>       0.1300
38 H38      -0.5519    -2.1027    -1.4838 H      1 <0>       0.1300
39 H39       1.0251    -2.2717    -2.2966 H      1 <0>       0.1300
40 H40       4.7721    -1.8398     1.5332 H      1 <0>       0.3800
41 H41       5.1524    -3.0444     3.1842 H      1 <0>       0.1400
42 H42       5.9714    -4.8650     4.7644 H      1 <0>       0.1500
43 H43       6.3179    -7.1247     3.6631 H      1 <0>       0.1700
44 H44       5.3966    -2.2041    -1.8788 H      1 <0>       0.1500
45 H45       6.3735    -3.4331    -3.8832 H      1 <0>       0.1500
46 H46       6.6341    -5.9349    -3.5480 H      1 <0>       0.1700
47 H47      -0.6062    -2.3035     1.1252 H      1 <0>       0.1200
48 H48       0.9363    -2.5998     1.9670 H      1 <0>       0.1200
@<TRIPOS>BOND
1    1    2 1
2    1   32 1
3    1   33 1
4    1   34 1
5    2   25 1
6    2    3 1
7    2    4 1
8    3   35 1
9    3   36 1
10    3   37 1
11    4    5 1
12    4   30 1
13    4    6 1
14    6    7 1
15    6   38 1
16    6   39 1
17    7    8 1
18    7    9 1
19    7   24 1
20    9   10 1
21   10   11 2
22   10   12 1
23   12   13 1
24   12   14 1
25   12   19 1
26   13   40 1
27   14   18 1
28   14   15 2
29   15   16 1
30   15   41 1
31   16   17 2
32   16   42 1
33   17   18 1
34   17   43 1
35   19   23 1
36   19   20 2
37   20   21 1
38   20   44 1
39   21   22 2
40   21   45 1
41   22   23 1
42   22   46 1
43   24   25 1
44   24   47 1
45   24   48 1
46   25   26 1
47   25   27 1
48   27   28 1
49   27   30 1
50   27   29 1
51   29   30 1
52   30   31 1
