@<TRIPOS>MOLECULE
ZINC000001530769
55    56    1     0     0
SMALL
USER_CHARGES
@<TRIPOS>ATOM
1      C1      1.6254   -3.1290   -2.0237 C.3      1 ZINC000001530769   -0.1500
2      C2      0.6724   -3.9240   -1.1290 C.3      1 ZINC000001530769   -0.1200
3      C3     -0.6209   -3.1661   -0.9740 C.2      1 ZINC000001530769    0.4400
4      O4     -0.7656   -2.0995   -1.5229 O.2      1 ZINC000001530769   -0.4600
5      O5     -1.6122   -3.6760   -0.2262 O.3      1 ZINC000001530769   -0.3400
6      C6     -2.7617   -2.8224    0.0153 C.3      1 ZINC000001530769    0.1900
7      C7     -3.8688   -3.6362    0.6883 C.3      1 ZINC000001530769   -0.0800
8      C8     -3.3213   -4.3040    1.9233 C.ar     1 ZINC000001530769   -0.0900
9      C9     -2.4204   -5.3457    1.8041 C.ar     1 ZINC000001530769   -0.1000
10     C10    -1.9183   -5.9583    2.9370 C.ar     1 ZINC000001530769   -0.1100
11     C11    -2.3167   -5.5290    4.1891 C.ar     1 ZINC000001530769   -0.1200
12     C12    -3.2169   -4.4867    4.3084 C.ar     1 ZINC000001530769   -0.1300
13     C13    -3.7158   -3.8713    3.1756 C.ar     1 ZINC000001530769   -0.1600
14     C14    -3.2659   -2.2760   -1.2955 C.ar     1 ZINC000001530769   -0.1000
15     C15    -3.8770   -1.0368   -1.3385 C.ar     1 ZINC000001530769   -0.1100
16     C16    -4.3396   -0.5356   -2.5409 C.ar     1 ZINC000001530769   -0.1200
17     C17    -4.1905   -1.2734   -3.7004 C.ar     1 ZINC000001530769   -0.1100
18     C18    -3.5785   -2.5122   -3.6575 C.ar     1 ZINC000001530769   -0.1100
19     C19    -3.1122   -3.0115   -2.4558 C.ar     1 ZINC000001530769   -0.1000
20     C20    -2.3538   -1.6639    0.9277 C.3      1 ZINC000001530769   -0.1300
21     H21    -3.2475   -1.1744    1.3149 H        1 ZINC000001530769    0.1000
22     C22    -1.5243   -0.6549    0.1310 C.3      1 ZINC000001530769   -0.1700
23     C23    -1.5212   -2.2014    2.0933 C.3      1 ZINC000001530769   -0.0300
24     N24    -1.8553   -1.4598    3.3166 N.4      1 ZINC000001530769   -0.3800
25     H25    -2.8482   -1.5197    3.4857 H        1 ZINC000001530769    0.4200
26     C26    -1.1290   -2.0396    4.4544 C.3      1 ZINC000001530769   -0.0600
27     C27    -1.4700   -0.0514    3.1561 C.3      1 ZINC000001530769   -0.0500
28     H28     2.5608   -3.6772   -2.1358 H        1 ZINC000001530769    0.0700
29     H29     1.1691   -2.9850   -3.0031 H        1 ZINC000001530769    0.0700
30     H30     1.8252   -2.1584   -1.5698 H        1 ZINC000001530769    0.0600
31     H31     0.4726   -4.8946   -1.5829 H        1 ZINC000001530769    0.1100
32     H32     1.1287   -4.0680   -0.1496 H        1 ZINC000001530769    0.1000
33     H33    -4.6886   -2.9739    0.9665 H        1 ZINC000001530769    0.1000
34     H34    -4.2337   -4.3952   -0.0037 H        1 ZINC000001530769    0.1000
35     H35    -2.1092   -5.6811    0.8258 H        1 ZINC000001530769    0.1400
36     H36    -1.2150   -6.7726    2.8438 H        1 ZINC000001530769    0.1300
37     H37    -1.9249   -6.0081    5.0742 H        1 ZINC000001530769    0.1300
38     H38    -3.5284   -4.1515    5.2866 H        1 ZINC000001530769    0.1300
39     H39    -4.4191   -3.0570    3.2687 H        1 ZINC000001530769    0.1200
40     H40    -3.9935   -0.4604   -0.4326 H        1 ZINC000001530769    0.1200
41     H41    -4.8177    0.4322   -2.5744 H        1 ZINC000001530769    0.1300
42     H42    -4.5525   -0.8821   -4.6397 H        1 ZINC000001530769    0.1300
43     H43    -3.4624   -3.0887   -4.5633 H        1 ZINC000001530769    0.1300
44     H44    -2.6340   -3.9793   -2.4223 H        1 ZINC000001530769    0.1200
45     H45    -1.9367   -0.5579   -0.8733 H        1 ZINC000001530769    0.1100
46     H46    -1.5524    0.3136    0.6304 H        1 ZINC000001530769    0.0500
47     H47    -0.4928   -1.0015    0.0682 H        1 ZINC000001530769    0.0700
48     H48    -1.7399   -3.2593    2.2386 H        1 ZINC000001530769    0.1600
49     H49    -0.4615   -2.0766    1.8708 H        1 ZINC000001530769    0.1300
50     H50    -0.0588   -1.8823    4.3204 H        1 ZINC000001530769    0.1200
51     H51    -1.4544   -1.5581    5.3765 H        1 ZINC000001530769    0.1300
52     H52    -1.3349   -3.1085    4.5103 H        1 ZINC000001530769    0.1200
53     H53    -0.5003    0.0059    2.6615 H        1 ZINC000001530769    0.1200
54     H54    -2.2171    0.4631    2.5517 H        1 ZINC000001530769    0.1200
55     H55    -1.4066    0.4219    4.1359 H        1 ZINC000001530769    0.1300
@<TRIPOS>BOND
1     1     2     1
2     1     28    1
3     1     29    1
4     1     30    1
5     2     3     1
6     2     31    1
7     2     32    1
8     3     4     2
9     3     5     1
10    5     6     1
11    6     7     1
12    6     14    1
13    6     20    1
14    7     8     1
15    7     33    1
16    7     34    1
17    8     13    ar
18    8     9     ar
19    9     10    ar
20    9     35    1
21    10    11    ar
22    10    36    1
23    11    12    ar
24    11    37    1
25    12    13    ar
26    12    38    1
27    13    39    1
28    14    19    ar
29    14    15    ar
30    15    16    ar
31    15    40    1
32    16    17    ar
33    16    41    1
34    17    18    ar
35    17    42    1
36    18    19    ar
37    18    43    1
38    19    44    1
39    20    21    1
40    20    22    1
41    20    23    1
42    22    45    1
43    22    46    1
44    22    47    1
45    23    24    1
46    23    48    1
47    23    49    1
48    24    25    1
49    24    26    1
50    24    27    1
51    26    50    1
52    26    51    1
53    26    52    1
54    27    53    1
55    27    54    1
56    27    55    1
@<TRIPOS>SUBSTRUCTURE
1   ZINC000001530769 1     RESIDUE    1   A     ZIN   1
