@<TRIPOS>MOLECULE
ZINC000001542002
56    56    1     0     0
SMALL
USER_CHARGES
@<TRIPOS>ATOM
1      C1     -0.0187    1.5258    0.0104 C.3      1 ZINC000001542002   -0.1500
2      C2      0.0021   -0.0041    0.0020 C.3      1 ZINC000001542002   -0.1300
3      C3      0.7421   -0.5109    1.2415 C.3      1 ZINC000001542002   -0.1200
4      C4      0.7628   -2.0407    1.2331 C.3      1 ZINC000001542002   -0.1200
5      C5      1.5028   -2.5476    2.4727 C.3      1 ZINC000001542002   -0.1200
6      C6      1.5236   -4.0774    2.4642 C.3      1 ZINC000001542002   -0.1200
7      C7      2.2636   -4.5842    3.7038 C.3      1 ZINC000001542002   -0.1100
8      C8      2.2843   -6.1141    3.6954 C.3      1 ZINC000001542002   -0.0900
9      C9      3.0132   -6.6133    4.9163 C.ar     1 ZINC000001542002   -0.0700
10     C10     4.3792   -6.8195    4.8695 C.ar     1 ZINC000001542002   -0.1100
11     C11     5.0478   -7.2775    5.9894 C.ar     1 ZINC000001542002   -0.1100
12     C12     4.3504   -7.5287    7.1562 C.ar     1 ZINC000001542002   -0.1100
13     C13     5.0792   -8.0284    8.3769 C.3      1 ZINC000001542002   -0.0900
14     C14     5.5468   -6.8369    9.2151 C.3      1 ZINC000001542002   -0.1300
15     C15     6.2867   -7.3442   10.4545 C.3      1 ZINC000001542002    0.0700
16     N16     7.4511   -8.1376   10.0390 N.4      1 ZINC000001542002   -0.6300
17     H17     8.0713   -7.5623    9.4891 H        1 ZINC000001542002    0.4400
18     H18     7.9391   -8.4722   10.8564 H        1 ZINC000001542002    0.4400
19     H19     7.1427   -8.9234    9.4863 H        1 ZINC000001542002    0.4300
20     C20     6.7543   -6.1527   11.2927 C.3      1 ZINC000001542002    0.0600
21     O21     7.5445   -6.6211   12.3873 O.3      1 ZINC000001542002   -0.5800
22     C22     5.3463   -8.2166   11.2884 C.3      1 ZINC000001542002    0.0700
23     O23     4.2136   -7.4448   11.6925 O.3      1 ZINC000001542002   -0.5500
24     C24     2.9845   -7.3212    7.2033 C.ar     1 ZINC000001542002   -0.1100
25     C25     2.3166   -6.8596    6.0846 C.ar     1 ZINC000001542002   -0.1100
26     H26     1.0039    1.9031    0.0027 H        1 ZINC000001542002    0.0500
27     H27    -0.5459    1.8868   -0.8726 H        1 ZINC000001542002    0.0500
28     H28    -0.5289    1.8773    0.9072 H        1 ZINC000001542002    0.0500
29     H29    -1.0205   -0.3814    0.0098 H        1 ZINC000001542002    0.0600
30     H30     0.5123   -0.3556   -0.8948 H        1 ZINC000001542002    0.0600
31     H31     1.7647   -0.1336    1.2338 H        1 ZINC000001542002    0.0600
32     H32     0.2319   -0.1594    2.1383 H        1 ZINC000001542002    0.0600
33     H33    -0.2598   -2.4180    1.2409 H        1 ZINC000001542002    0.0600
34     H34     1.2730   -2.3923    0.3363 H        1 ZINC000001542002    0.0600
35     H35     2.5254   -2.1703    2.4649 H        1 ZINC000001542002    0.0600
36     H36     0.9926   -2.1961    3.3695 H        1 ZINC000001542002    0.0600
37     H37     0.5010   -4.4547    2.4720 H        1 ZINC000001542002    0.0600
38     H38     2.0337   -4.4289    1.5675 H        1 ZINC000001542002    0.0600
39     H39     3.2861   -4.2070    3.6960 H        1 ZINC000001542002    0.0600
40     H40     1.7534   -4.2327    4.6006 H        1 ZINC000001542002    0.0600
41     H41     1.2617   -6.4914    3.7031 H        1 ZINC000001542002    0.0800
42     H42     2.7945   -6.4656    2.7986 H        1 ZINC000001542002    0.0800
43     H43     4.9241   -6.6233    3.9579 H        1 ZINC000001542002    0.1300
44     H44     6.1150   -7.4393    5.9527 H        1 ZINC000001542002    0.1200
45     H45     4.4093   -8.6499    8.9710 H        1 ZINC000001542002    0.0900
46     H46     5.9432   -8.6171    8.0687 H        1 ZINC000001542002    0.0600
47     H47     6.2167   -6.2153    8.6210 H        1 ZINC000001542002    0.0900
48     H48     4.6828   -6.2481    9.5234 H        1 ZINC000001542002    0.1200
49     H49     7.3521   -5.4846   10.6727 H        1 ZINC000001542002    0.0700
50     H50     5.8868   -5.6145   11.6748 H        1 ZINC000001542002    0.1000
51     H51     7.8756   -5.9180   12.9626 H        1 ZINC000001542002    0.4100
52     H52     5.0132   -9.0655   10.6913 H        1 ZINC000001542002    0.0700
53     H53     5.8734   -8.5781   12.1713 H        1 ZINC000001542002    0.0800
54     H54     3.5735   -7.9353   12.2261 H        1 ZINC000001542002    0.4100
55     H55     2.4397   -7.5171    8.1150 H        1 ZINC000001542002    0.1200
56     H56     1.2494   -6.6974    6.1214 H        1 ZINC000001542002    0.1300
@<TRIPOS>BOND
1     1     2     1
2     1     26    1
3     1     27    1
4     1     28    1
5     2     3     1
6     2     29    1
7     2     30    1
8     3     4     1
9     3     31    1
10    3     32    1
11    4     5     1
12    4     33    1
13    4     34    1
14    5     6     1
15    5     35    1
16    5     36    1
17    6     7     1
18    6     37    1
19    6     38    1
20    7     8     1
21    7     39    1
22    7     40    1
23    8     9     1
24    8     41    1
25    8     42    1
26    9     25    ar
27    9     10    ar
28    10    11    ar
29    10    43    1
30    11    12    ar
31    11    44    1
32    12    13    1
33    12    24    ar
34    13    14    1
35    13    45    1
36    13    46    1
37    14    15    1
38    14    47    1
39    14    48    1
40    15    16    1
41    15    20    1
42    15    22    1
43    16    17    1
44    16    18    1
45    16    19    1
46    20    21    1
47    20    49    1
48    20    50    1
49    21    51    1
50    22    23    1
51    22    52    1
52    22    53    1
53    23    54    1
54    24    25    ar
55    24    55    1
56    25    56    1
@<TRIPOS>SUBSTRUCTURE
1   ZINC000001542002 1     RESIDUE    1   A     ZIN   1
