@<TRIPOS>MOLECULE
ZINC000003875560
57    60    1     0     0
SMALL
USER_CHARGES
@<TRIPOS>ATOM
1      C1     -0.1288    0.8089   -2.6300 C.3      1 ZINC000003875560   -0.1500
2      C2     -0.0136   -0.5289   -1.8966 C.3      1 ZINC000003875560   -0.0600
3      H3     -0.9854   -1.0221   -1.8763 H        1 ZINC000003875560    0.0900
4      C4      1.0056   -1.4233   -2.6094 C.3      1 ZINC000003875560   -0.1100
5      C5      1.2149   -2.7073   -1.8040 C.3      1 ZINC000003875560   -0.0800
6      H6      0.2591   -3.2112   -1.6607 H        1 ZINC000003875560    0.1000
7      C7      2.1732   -3.6265   -2.5389 C.3      1 ZINC000003875560   -0.0800
8      H8      3.1529   -3.1576   -2.6301 H        1 ZINC000003875560    0.0800
9      C9      1.6952   -4.1338   -3.9039 C.3      1 ZINC000003875560   -0.1100
10     C10     2.5300   -5.4277   -4.1062 C.3      1 ZINC000003875560   -0.1500
11     C11     2.9352   -5.9117   -2.6916 C.3      1 ZINC000003875560    0.1000
12     O12     4.3545   -5.8530   -2.5359 O.3      1 ZINC000003875560   -0.5400
13     C13     2.4429   -7.3170   -2.4596 C.2      1 ZINC000003875560    0.3400
14     O14     1.4589   -7.7149   -3.0356 O.2      1 ZINC000003875560   -0.4100
15     C15     3.1786   -8.2258   -1.5089 C.3      1 ZINC000003875560    0.0300
16     O16     2.5233   -9.4948   -1.4597 O.3      1 ZINC000003875560   -0.5600
17     C17     2.2739   -4.9376   -1.7137 C.3      1 ZINC000003875560   -0.0400
18     C18     0.8619   -5.4203   -1.3761 C.3      1 ZINC000003875560   -0.1700
19     C19     3.0372   -4.6382   -0.4378 C.3      1 ZINC000003875560   -0.1200
20     C20     2.1909   -3.6452    0.3747 C.3      1 ZINC000003875560    0.1100
21     H21     2.7290   -3.3813    1.2851 H        1 ZINC000003875560    0.0600
22     O22     0.9541   -4.2675    0.7285 O.3      1 ZINC000003875560   -0.5500
23     C23     1.8300   -2.3637   -0.4380 C.3      1 ZINC000003875560   -0.0500
24     H24     2.7411   -1.8032   -0.6474 H        1 ZINC000003875560    0.0800
25     C25     0.8799   -1.4910    0.3876 C.3      1 ZINC000003875560   -0.0100
26     C26    -0.3789   -2.3132    0.6709 C.3      1 ZINC000003875560   -0.1300
27     C27     1.4861   -1.1501    1.7054 C.2      1 ZINC000003875560   -0.0600
28     C28     1.6002    0.0836    2.1714 C.2      1 ZINC000003875560   -0.2200
29     C29     1.1187    1.2190    1.3666 C.2      1 ZINC000003875560    0.4100
30     O30     1.1736    2.3554    1.7984 O.2      1 ZINC000003875560   -0.4600
31     C31     0.5705    0.9485    0.0286 C.2      1 ZINC000003875560   -0.2400
32     C32     0.4718   -0.2953   -0.4783 C.2      1 ZINC000003875560   -0.0200
33     H33     0.8449    1.2985   -2.6478 H        1 ZINC000003875560    0.0600
34     H34    -0.4669    0.6353   -3.6516 H        1 ZINC000003875560    0.0600
35     H35    -0.8464    1.4461   -2.1131 H        1 ZINC000003875560    0.0600
36     H36     0.6353   -1.6747   -3.6032 H        1 ZINC000003875560    0.0800
37     H37     1.9536   -0.8929   -2.6994 H        1 ZINC000003875560    0.0700
38     H38     0.6297   -4.3623   -3.8789 H        1 ZINC000003875560    0.0700
39     H39     1.9164   -3.4062   -4.6848 H        1 ZINC000003875560    0.0700
40     H40     1.9274   -6.1879   -4.6033 H        1 ZINC000003875560    0.0800
41     H41     3.4202   -5.2102   -4.6964 H        1 ZINC000003875560    0.0800
42     H42     4.8414   -6.4166   -3.1526 H        1 ZINC000003875560    0.3800
43     H43     4.2038   -8.3595   -1.8542 H        1 ZINC000003875560    0.0800
44     H44     3.1855   -7.7816   -0.5136 H        1 ZINC000003875560    0.0800
45     H45     2.9436  -10.1317   -0.8658 H        1 ZINC000003875560    0.3900
46     H46     0.9199   -6.2435   -0.6640 H        1 ZINC000003875560    0.0500
47     H47     0.2926   -4.6004   -0.9381 H        1 ZINC000003875560    0.1200
48     H48     0.3671   -5.7609   -2.2856 H        1 ZINC000003875560    0.0500
49     H49     3.1821   -5.5558    0.1323 H        1 ZINC000003875560    0.0700
50     H50     4.0027   -4.1931   -0.6784 H        1 ZINC000003875560    0.0800
51     H51     1.0549   -5.0669    1.2632 H        1 ZINC000003875560    0.3700
52     H52    -0.1876   -2.9975    1.4975 H        1 ZINC000003875560    0.0900
53     H53    -1.1979   -1.6443    0.9351 H        1 ZINC000003875560    0.0400
54     H54    -0.6481   -2.8836   -0.2181 H        1 ZINC000003875560    0.0700
55     H55     1.8555   -1.9594    2.3179 H        1 ZINC000003875560    0.1300
56     H56     2.0451    0.2572    3.1401 H        1 ZINC000003875560    0.1400
57     H57     0.2448    1.7696   -0.5927 H        1 ZINC000003875560    0.1400
@<TRIPOS>BOND
1     1     2     1
2     1     33    1
3     1     34    1
4     1     35    1
5     2     3     1
6     2     32    1
7     2     4     1
8     4     5     1
9     4     36    1
10    4     37    1
11    5     6     1
12    5     23    1
13    5     7     1
14    7     8     1
15    7     17    1
16    7     9     1
17    9     10    1
18    9     38    1
19    9     39    1
20    10    11    1
21    10    40    1
22    10    41    1
23    11    12    1
24    11    13    1
25    11    17    1
26    12    42    1
27    13    14    2
28    13    15    1
29    15    16    1
30    15    43    1
31    15    44    1
32    16    45    1
33    17    18    1
34    17    19    1
35    18    46    1
36    18    47    1
37    18    48    1
38    19    20    1
39    19    49    1
40    19    50    1
41    20    21    1
42    20    22    1
43    20    23    1
44    22    51    1
45    23    24    1
46    23    25    1
47    25    32    1
48    25    26    1
49    25    27    1
50    26    52    1
51    26    53    1
52    26    54    1
53    27    28    2
54    27    55    1
55    28    29    1
56    28    56    1
57    29    30    2
58    29    31    1
59    31    32    2
60    31    57    1
@<TRIPOS>SUBSTRUCTURE
1   ZINC000003875560 1     RESIDUE    1   A     ZIN   1




