@<TRIPOS>MOLECULE
ZINC000003831282
41    43    1     0     0
SMALL
USER_CHARGES
@<TRIPOS>ATOM
1      C1     -0.0187    1.5258    0.0104 C.3      1 ZINC000003831282   -0.1300
2      C2      0.0021   -0.0041    0.0020 C.3      1 ZINC000003831282    0.0300
3      C3     -1.4134   -0.5749   -0.1053 C.3      1 ZINC000003831282   -0.1200
4      S4      1.0907   -0.6522   -1.3359 S.3      1 ZINC000003831282   -0.3000
5      C5      2.6329   -0.5170   -0.3543 C.3      1 ZINC000003831282    0.0900
6      H6      3.2816    0.3031   -0.6620 H        1 ZINC000003831282    0.1500
7      C7      3.3483   -1.8438   -0.1277 C.3      1 ZINC000003831282    0.1000
8      H8      4.4222   -1.8139   -0.3121 H        1 ZINC000003831282    0.1500
9      N9      2.6851   -3.0008   -0.7340 N.am     1 ZINC000003831282   -0.6900
10     C10     3.4015   -4.0962   -1.0557 C.2      1 ZINC000003831282    0.5200
11     O11     4.5952   -4.1240   -0.8432 O.2      1 ZINC000003831282   -0.5100
12     C12     2.7192   -5.2863   -1.6795 C.3      1 ZINC000003831282    0.0400
13     O13     3.6826   -6.3125   -1.9260 O.3      1 ZINC000003831282   -0.2900
14     C14     3.2285   -7.4625   -2.4902 C.ar     1 ZINC000003831282    0.1300
15     C15     1.8843   -7.5981   -2.8054 C.ar     1 ZINC000003831282   -0.2100
16     C16     1.4252   -8.7679   -3.3793 C.ar     1 ZINC000003831282   -0.0800
17     C17     2.3041   -9.8031   -3.6391 C.ar     1 ZINC000003831282   -0.1600
18     C18     3.6442   -9.6706   -3.3255 C.ar     1 ZINC000003831282   -0.0800
19     C19     4.1093   -8.5005   -2.7571 C.ar     1 ZINC000003831282   -0.1500
20     C20     2.9546   -1.5777    1.3007 C.2      1 ZINC000003831282    0.4800
21     O21     3.2279   -2.1501    2.3345 O.2      1 ZINC000003831282   -0.4400
22     N22     2.1938   -0.4697    1.0469 N.am     1 ZINC000003831282   -0.4800
23     C23     0.7447   -0.5655    1.2444 C.3      1 ZINC000003831282    0.0300
24     H24     0.4661   -1.6109    1.3779 H        1 ZINC000003831282    0.0700
25     C25     0.3544    0.2166    2.4720 C.2      1 ZINC000003831282    0.5200
26     O26     1.1752    0.9242    3.0305 O.co2    1 ZINC000003831282   -0.6600
27     O27    -0.7823    0.1417    2.9067 O.co2    1 ZINC000003831282   -0.6800
28     H28     1.0039    1.9031    0.0027 H        1 ZINC000003831282    0.0600
29     H29    -0.5459    1.8868   -0.8726 H        1 ZINC000003831282    0.0600
30     H30    -0.5289    1.8773    0.9072 H        1 ZINC000003831282    0.0800
31     H31    -1.8805   -0.2180   -1.0232 H        1 ZINC000003831282    0.0600
32     H32    -1.3658   -1.6638   -0.1215 H        1 ZINC000003831282    0.0600
33     H33    -2.0023   -0.2497    0.7523 H        1 ZINC000003831282    0.1000
34     H34     1.7303   -2.9785   -0.9040 H        1 ZINC000003831282    0.4100
35     H35     1.9530   -5.6625   -1.0015 H        1 ZINC000003831282    0.1000
36     H36     2.2570   -4.9882   -2.6206 H        1 ZINC000003831282    0.1000
37     H37     1.1972   -6.7900   -2.6020 H        1 ZINC000003831282    0.1300
38     H38     0.3789   -8.8739   -3.6249 H        1 ZINC000003831282    0.1300
39     H39     1.9432  -10.7170   -4.0875 H        1 ZINC000003831282    0.1200
40     H40     4.3286  -10.4808   -3.5291 H        1 ZINC000003831282    0.1300
41     H41     5.1561   -8.3975   -2.5123 H        1 ZINC000003831282    0.1300
@<TRIPOS>BOND
1     1     2     1
2     1     28    1
3     1     29    1
4     1     30    1
5     2     23    1
6     2     3     1
7     2     4     1
8     3     31    1
9     3     32    1
10    3     33    1
11    4     5     1
12    5     6     1
13    5     22    1
14    5     7     1
15    7     8     1
16    7     9     1
17    7     20    1
18    9     10    am
19    9     34    1
20    10    11    2
21    10    12    1
22    12    13    1
23    12    35    1
24    12    36    1
25    13    14    1
26    14    19    ar
27    14    15    ar
28    15    16    ar
29    15    37    1
30    16    17    ar
31    16    38    1
32    17    18    ar
33    17    39    1
34    18    19    ar
35    18    40    1
36    19    41    1
37    20    21    2
38    20    22    am
39    22    23    1
40    23    24    1
41    23    25    1
42    25    26    ar
43    25    27    ar
@<TRIPOS>SUBSTRUCTURE
1   ZINC000003831282 1     RESIDUE    1   A     ZIN   1
