@<TRIPOS>MOLECULE
ZINC000014210642
66    71    1     0     0
SMALL
USER_CHARGES
@<TRIPOS>ATOM
1      C1      1.4063   -0.2387    1.1151 C.3      1 ZINC000014210642   -0.1600
2      C2      1.2070   -1.4518    0.2042 C.3      1 ZINC000014210642    0.0800
3      O3      2.1461   -1.3990   -0.8716 O.3      1 ZINC000014210642   -0.2800
4      C4      2.1031   -2.4057   -1.7743 C.2      1 ZINC000014210642    0.4900
5      N5      1.2689   -3.4117   -1.7380 N.2      1 ZINC000014210642   -0.5300
6      C6      1.5031   -4.2340   -2.7955 C.ar     1 ZINC000014210642    0.0700
7      C7      0.9198   -5.4250   -3.2317 C.ar     1 ZINC000014210642   -0.0300
8      C8      1.3852   -6.0470   -4.3721 C.ar     1 ZINC000014210642   -0.1400
9      C9      2.4293   -5.5039   -5.0962 C.ar     1 ZINC000014210642   -0.0500
10     C10     3.0290   -4.3136   -4.6811 C.ar     1 ZINC000014210642   -0.1200
11     C11     4.1423   -3.7343   -5.4539 C.2      1 ZINC000014210642    0.5100
12     O12     4.2653   -2.5278   -5.5310 O.2      1 ZINC000014210642   -0.4800
13     O13     5.0239   -4.5425   -6.0748 O.3      1 ZINC000014210642   -0.3400
14     C14     6.0949   -3.9026   -6.8176 C.3      1 ZINC000014210642    0.1500
15     C15     6.9747   -4.9566   -7.4390 C.2      1 ZINC000014210642   -0.0500
16     C16     7.1369   -5.1666   -8.7356 C.2      1 ZINC000014210642    0.0100
17     C17     6.4737   -4.3931   -9.8459 C.3      1 ZINC000014210642   -0.0800
18     O18     8.0032   -6.1973   -8.8921 O.3      1 ZINC000014210642   -0.2400
19     C19     8.3709   -6.6173   -7.6709 C.2      1 ZINC000014210642    0.5800
20     O20     9.1398   -7.5270   -7.4274 O.2      1 ZINC000014210642   -0.4200
21     O21     7.7413   -5.8497   -6.7667 O.3      1 ZINC000014210642   -0.2300
22     C22     2.5646   -3.6740   -3.5243 C.ar     1 ZINC000014210642    0.1000
23     N23     2.9203   -2.5192   -2.8615 N.pl3    1 ZINC000014210642   -0.4700
24     C24     3.9814   -1.5870   -3.2505 C.3      1 ZINC000014210642    0.1400
25     C25     3.3718   -0.3850   -3.9248 C.ar     1 ZINC000014210642   -0.0700
26     C26     2.4512   -0.5591   -4.9426 C.ar     1 ZINC000014210642   -0.0900
27     C27     1.8892    0.5377   -5.5635 C.ar     1 ZINC000014210642   -0.0900
28     C28     2.2510    1.8233   -5.1630 C.ar     1 ZINC000014210642   -0.0800
29     C29     1.6508    3.0053   -5.8254 C.ar     1 ZINC000014210642    0.0400
30     C30     1.6315    3.0950   -7.2141 C.ar     1 ZINC000014210642   -0.1100
31     C31     1.0709    4.1978   -7.8273 C.ar     1 ZINC000014210642   -0.0800
32     C32     0.5252    5.2200   -7.0692 C.ar     1 ZINC000014210642   -0.1200
33     C33     0.5349    5.1491   -5.6913 C.ar     1 ZINC000014210642   -0.0800
34     C34     1.0920    4.0405   -5.0546 C.ar     1 ZINC000014210642   -0.0700
35     C35     1.1052    3.9593   -3.5802 C.2      1 ZINC000014210642    0.4000
36     N36     1.6061    2.9694   -2.8509 N.2      1 ZINC000014210642   -0.5300
37     C37     1.3997    3.3174   -1.5734 C.2      1 ZINC000014210642    0.5500
38     O38     1.7158    2.6729   -0.5877 O.2      1 ZINC000014210642   -0.4600
39     O39     0.7804    4.5076   -1.5816 O.3      1 ZINC000014210642   -0.0800
40     N40     0.6164    4.8787   -2.7250 N.pl3    1 ZINC000014210642   -0.5000
41     C41     3.1794    1.9925   -4.1365 C.ar     1 ZINC000014210642   -0.0100
42     C42     3.7307    0.8881   -3.5196 C.ar     1 ZINC000014210642   -0.1100
43     H43     2.4196   -0.2484    1.5165 H        1 ZINC000014210642    0.0600
44     H44     1.2512    0.6753    0.5420 H        1 ZINC000014210642    0.0800
45     H45     0.6900   -0.2790    1.9357 H        1 ZINC000014210642    0.0800
46     H46     1.3621   -2.3659    0.7774 H        1 ZINC000014210642    0.0700
47     H47     0.1937   -1.4422   -0.1972 H        1 ZINC000014210642    0.0700
48     H48     0.1030   -5.8606   -2.6754 H        1 ZINC000014210642    0.1400
49     H49     0.9287   -6.9685   -4.7021 H        1 ZINC000014210642    0.1400
50     H50     2.7829   -6.0024   -5.9866 H        1 ZINC000014210642    0.1400
51     H51     5.6695   -3.2760   -7.6015 H        1 ZINC000014210642    0.1200
52     H52     6.6881   -3.2864   -6.1419 H        1 ZINC000014210642    0.1000
53     H53     7.1002   -3.5450  -10.1224 H        1 ZINC000014210642    0.1000
54     H54     6.3388   -5.0425  -10.7109 H        1 ZINC000014210642    0.1000
55     H55     5.5024   -4.0322   -9.5076 H        1 ZINC000014210642    0.1000
56     H56     4.5278   -1.2676   -2.3631 H        1 ZINC000014210642    0.0900
57     H57     4.6654   -2.0822   -3.9397 H        1 ZINC000014210642    0.1300
58     H58     2.1720   -1.5554   -5.2522 H        1 ZINC000014210642    0.1200
59     H59     1.1709    0.4006   -6.3582 H        1 ZINC000014210642    0.1200
60     H60     2.0555    2.3020   -7.8122 H        1 ZINC000014210642    0.1400
61     H61     1.0583    4.2637   -8.9053 H        1 ZINC000014210642    0.1400
62     H62     0.0896    6.0781   -7.5595 H        1 ZINC000014210642    0.1400
63     H63     0.1078    5.9502   -5.1062 H        1 ZINC000014210642    0.1300
64     H64     0.1904    5.7105   -2.9850 H        1 ZINC000014210642    0.4700
65     H65     3.4635    2.9859   -3.8222 H        1 ZINC000014210642    0.1100
66     H66     4.4496    1.0178   -2.7242 H        1 ZINC000014210642    0.1200
@<TRIPOS>BOND
1     1     2     1
2     1     43    1
3     1     44    1
4     1     45    1
5     2     3     1
6     2     46    1
7     2     47    1
8     3     4     1
9     4     23    1
10    4     5     2
11    5     6     1
12    6     22    ar
13    6     7     ar
14    7     8     ar
15    7     48    1
16    8     9     ar
17    8     49    1
18    9     10    ar
19    9     50    1
20    10    11    1
21    10    22    ar
22    11    12    2
23    11    13    1
24    13    14    1
25    14    15    1
26    14    51    1
27    14    52    1
28    15    21    1
29    15    16    2
30    16    17    1
31    16    18    1
32    17    53    1
33    17    54    1
34    17    55    1
35    18    19    1
36    19    20    2
37    19    21    1
38    22    23    1
39    23    24    1
40    24    25    1
41    24    56    1
42    24    57    1
43    25    42    ar
44    25    26    ar
45    26    27    ar
46    26    58    1
47    27    28    ar
48    27    59    1
49    28    29    1
50    28    41    ar
51    29    34    ar
52    29    30    ar
53    30    31    ar
54    30    60    1
55    31    32    ar
56    31    61    1
57    32    33    ar
58    32    62    1
59    33    34    ar
60    33    63    1
61    34    35    1
62    35    40    1
63    35    36    2
64    36    37    1
65    37    38    2
66    37    39    1
67    39    40    1
68    40    64    1
69    41    42    ar
70    41    65    1
71    42    66    1
@<TRIPOS>SUBSTRUCTURE
1   ZINC000014210642 1     RESIDUE    1   A     ZIN   1
