@<TRIPOS>MOLECULE
ZINC000003875357
52    55    1     0     0
SMALL
USER_CHARGES
@<TRIPOS>ATOM
1      C1      0.1862    1.5792    0.0324 C.3      1 ZINC000003875357   -0.1600
2      C2      0.1068    0.0513    0.0373 C.3      1 ZINC000003875357   -0.0400
3      C3     -1.3234   -0.3915    0.3022 C.3      1 ZINC000003875357   -0.1400
4      C4     -1.6987    0.1579    1.6712 C.2      1 ZINC000003875357    0.3700
5      O5     -2.7306    0.7668    1.8216 O.2      1 ZINC000003875357   -0.4400
6      C6     -0.7706   -0.0657    2.8374 C.3      1 ZINC000003875357   -0.1200
7      H7     -0.8295   -1.1078    3.1512 H        1 ZINC000003875357    0.1100
8      C8      0.6779    0.2644    2.4348 C.3      1 ZINC000003875357   -0.0800
9      H9      0.7646    1.3313    2.2289 H        1 ZINC000003875357    0.1000
10     C10     1.6155   -0.1120    3.5802 C.3      1 ZINC000003875357   -0.1100
11     C11     1.3038    0.7685    4.7968 C.3      1 ZINC000003875357   -0.1000
12     C12    -0.1723    0.6383    5.1212 C.2      1 ZINC000003875357   -0.0300
13     C13    -0.5323    0.3617    6.3670 C.2      1 ZINC000003875357   -0.2200
14     C14    -1.9515    0.2046    6.7202 C.2      1 ZINC000003875357    0.4100
15     O15    -2.2865   -0.0065    7.8708 O.2      1 ZINC000003875357   -0.4600
16     C16    -2.9579    0.3092    5.6500 C.2      1 ZINC000003875357   -0.2200
17     C17    -2.5776    0.5935    4.4144 C.2      1 ZINC000003875357   -0.0700
18     C18    -1.1557    0.8386    4.0086 C.3      1 ZINC000003875357    0.0000
19     C19    -1.0464    2.2858    3.5244 C.3      1 ZINC000003875357   -0.1500
20     C20     0.9922   -0.5209    1.1778 C.3      1 ZINC000003875357   -0.0800
21     H21     0.7812   -1.5795    1.3295 H        1 ZINC000003875357    0.0900
22     C22     2.4102   -0.3327    0.6238 C.3      1 ZINC000003875357   -0.1100
23     C23     2.2578   -0.7196   -0.8715 C.3      1 ZINC000003875357   -0.1500
24     C24     0.7552   -0.5070   -1.2275 C.3      1 ZINC000003875357    0.1100
25     O25     0.1472   -1.7538   -1.5708 O.3      1 ZINC000003875357   -0.5400
26     C26     0.6227    0.4701   -2.3671 C.2      1 ZINC000003875357    0.3300
27     O27     1.4918    1.2839   -2.5690 O.2      1 ZINC000003875357   -0.4100
28     C28    -0.5945    0.4318   -3.2548 C.3      1 ZINC000003875357    0.0300
29     O29    -0.4879    1.4481   -4.2537 O.3      1 ZINC000003875357   -0.5600
30     H30     1.2302    1.8886   -0.0172 H        1 ZINC000003875357    0.0800
31     H31    -0.3496    1.9681   -0.8335 H        1 ZINC000003875357    0.0600
32     H32    -0.2654    1.9694    0.9445 H        1 ZINC000003875357    0.0700
33     H33    -1.9881    0.0166   -0.4592 H        1 ZINC000003875357    0.0900
34     H34    -1.3828   -1.4799    0.3072 H        1 ZINC000003875357    0.1200
35     H35     1.4686   -1.1599    3.8418 H        1 ZINC000003875357    0.0700
36     H36     2.6490    0.0457    3.2717 H        1 ZINC000003875357    0.0800
37     H37     1.8966    0.4377    5.6496 H        1 ZINC000003875357    0.0800
38     H38     1.5377    1.8078    4.5660 H        1 ZINC000003875357    0.0900
39     H39     0.2240    0.2502    7.1299 H        1 ZINC000003875357    0.1400
40     H40    -4.0033    0.1546    5.8729 H        1 ZINC000003875357    0.1400
41     H41    -3.3399    0.6557    3.6518 H        1 ZINC000003875357    0.1500
42     H42    -1.3299    2.9613    4.3315 H        1 ZINC000003875357    0.0700
43     H43    -0.0195    2.4913    3.2223 H        1 ZINC000003875357    0.0700
44     H44    -1.7121    2.4358    2.6744 H        1 ZINC000003875357    0.0800
45     H45     2.7277    0.7054    0.7225 H        1 ZINC000003875357    0.0800
46     H46     3.1113   -1.0002    1.1248 H        1 ZINC000003875357    0.0800
47     H47     2.8858   -0.0781   -1.4897 H        1 ZINC000003875357    0.0900
48     H48     2.5316   -1.7645   -1.0172 H        1 ZINC000003875357    0.0800
49     H49     0.5393   -2.1830   -2.3435 H        1 ZINC000003875357    0.3800
50     H50    -0.6632   -0.5441   -3.7354 H        1 ZINC000003875357    0.0800
51     H51    -1.4877    0.6047   -2.6544 H        1 ZINC000003875357    0.0800
52     H52    -1.2386    1.4819   -4.8622 H        1 ZINC000003875357    0.3900
@<TRIPOS>BOND
1     1     2     1
2     1     30    1
3     1     31    1
4     1     32    1
5     2     20    1
6     2     24    1
7     2     3     1
8     3     4     1
9     3     33    1
10    3     34    1
11    4     5     2
12    4     6     1
13    6     7     1
14    6     18    1
15    6     8     1
16    8     9     1
17    8     10    1
18    8     20    1
19    10    11    1
20    10    35    1
21    10    36    1
22    11    12    1
23    11    37    1
24    11    38    1
25    12    18    1
26    12    13    2
27    13    14    1
28    13    39    1
29    14    15    2
30    14    16    1
31    16    17    2
32    16    40    1
33    17    18    1
34    17    41    1
35    18    19    1
36    19    42    1
37    19    43    1
38    19    44    1
39    20    21    1
40    20    22    1
41    22    23    1
42    22    45    1
43    22    46    1
44    23    24    1
45    23    47    1
46    23    48    1
47    24    25    1
48    24    26    1
49    25    49    1
50    26    27    2
51    26    28    1
52    28    29    1
53    28    50    1
54    28    51    1
55    29    52    1
@<TRIPOS>SUBSTRUCTURE
1   ZINC000003875357 1     RESIDUE    1   A     ZIN   1
