@<TRIPOS>MOLECULE
ZINC000007997568
22    23    1     0     0
SMALL
USER_CHARGES
@<TRIPOS>ATOM
1      O1      0.7351    0.4094   -1.0175 O.2      1 ZINC000007997568   -0.5400
2      C2      0.3456    1.4108   -0.4562 C.2      1 ZINC000007997568    0.5000
3      C3     -0.5006    2.5211   -1.0468 C.3      1 ZINC000007997568    0.0300
4      N4     -0.6660    3.4635    0.0733 N.am     1 ZINC000007997568   -0.5100
5      N5     -1.3191    4.5758    0.0547 N.2      1 ZINC000007997568   -0.1500
6      C6     -0.6627    5.7392    0.1461 C.2      1 ZINC000007997568    0.0800
7      C7      0.7173    5.7564    0.1254 C.2      1 ZINC000007997568    0.0800
8      C8      1.5865    6.9322    0.3310 C.2      1 ZINC000007997568   -0.1800
9      C9      2.8658    6.4742    0.2232 C.2      1 ZINC000007997568   -0.0700
10     C10     2.8070    5.1019   -0.0330 C.2      1 ZINC000007997568    0.0300
11     N11     3.9890    4.2188   -0.2188 N.pl3    1 ZINC000007997568    0.0200
12     O12     5.2042    4.7210   -0.1455 O.2      1 ZINC000007997568   -0.1900
13     O13     3.8204    2.9345   -0.4567 O.2      1 ZINC000007997568   -0.1400
14     O14     1.5348    4.6977   -0.0815 O.3      1 ZINC000007997568   -0.1000
15     C15    -0.0038    2.9377    1.1196 C.2      1 ZINC000007997568    0.6500
16     O16     0.0619    3.4655    2.2111 O.2      1 ZINC000007997568   -0.6000
17     N17     0.5701    1.7657    0.8244 N.pl3    1 ZINC000007997568   -0.6900
18     H18     0.0194    2.9994   -1.8768 H        1 ZINC000007997568    0.0800
19     H19    -1.4677    2.1358   -1.3698 H        1 ZINC000007997568    0.0900
20     H20    -1.2130    6.6641    0.2362 H        1 ZINC000007997568    0.2100
21     H21     1.2729    7.9471    0.5263 H        1 ZINC000007997568    0.1900
22     H22     3.7641    7.0662    0.3185 H        1 ZINC000007997568    0.1800
@<TRIPOS>BOND
1     1     2     2
2     2     17    1
3     2     3     1
4     3     4     1
5     3     18    1
6     3     19    1
7     4     5     1
8     4     15    am
9     5     6     2
10    6     7     1
11    6     20    1
12    7     14    1
13    7     8     2
14    8     9     1
15    8     21    1
16    9     10    2
17    9     22    1
18    10    11    1
19    10    14    1
20    11    12    2
21    11    13    2
22    15    16    2
23    15    17    1
@<TRIPOS>SUBSTRUCTURE
1   ZINC000007997568 1     RESIDUE    1   A     ZIN   1
