@<TRIPOS>MOLECULE
ZINC000003812869
38    40    1     0     0
SMALL
USER_CHARGES
@<TRIPOS>ATOM
1      N1     -0.0116    1.0048    0.0076 N.4      1 ZINC000003812869   -0.6200
2      H2      0.0021   -0.0041    0.0020 H        1 ZINC000003812869    0.4500
3      H3      0.9350    1.3541    0.0004 H        1 ZINC000003812869    0.4400
4      H4     -0.4996    1.3391   -0.8099 H        1 ZINC000003812869    0.4400
5      C5     -0.6992    1.4786    1.2162 C.3      1 ZINC000003812869    0.0700
6      H6     -1.7218    1.1013    1.2239 H        1 ZINC000003812869    0.1700
7      C7      0.0297    0.9794    2.4371 C.2      1 ZINC000003812869    0.5100
8      O8      1.1851    0.6214    2.3494 O.2      1 ZINC000003812869   -0.5100
9      N9     -0.6025    0.9307    3.6264 N.am     1 ZINC000003812869   -0.6700
10     C10     0.1061    0.4454    4.8133 C.3      1 ZINC000003812869    0.1200
11     H11     1.1866    0.5695    4.7421 H        1 ZINC000003812869    0.1600
12     C12    -0.3203   -0.9454    5.2516 C.2      1 ZINC000003812869    0.5400
13     O13    -0.1087   -2.0662    4.8388 O.2      1 ZINC000003812869   -0.4200
14     N14    -1.0247   -0.4404    6.2789 N.am     1 ZINC000003812869   -0.5500
15     C15    -2.0553   -0.8449    7.1481 C.2      1 ZINC000003812869    0.1000
16     C16    -2.1984   -2.2607    7.5110 C.2      1 ZINC000003812869    0.5100
17     O17    -3.0950   -2.6112    8.2669 O.co2    1 ZINC000003812869   -0.6400
18     O18    -1.4210   -3.0902    7.0575 O.co2    1 ZINC000003812869   -0.6600
19     C19    -2.8989    0.0575    7.6404 C.2      1 ZINC000003812869   -0.1500
20     Cl20   -4.1682   -0.5635    8.6488 Cl       1 ZINC000003812869   -0.0200
21     C21    -2.8934    1.5368    7.4370 C.3      1 ZINC000003812869   -0.0200
22     S22    -1.9458    2.0265    5.9641 S.3      1 ZINC000003812869   -0.2300
23     C23    -0.4828    0.9500    6.1266 C.3      1 ZINC000003812869    0.1200
24     H24     0.2342    1.2721    6.8818 H        1 ZINC000003812869    0.1500
25     C25    -0.7196    2.9854    1.2245 C.ar     1 ZINC000003812869   -0.1500
26     C26     0.3899    3.6940    0.8028 C.ar     1 ZINC000003812869   -0.1100
27     C27     0.3711    5.0762    0.8105 C.ar     1 ZINC000003812869   -0.1100
28     C28    -0.7573    5.7498    1.2392 C.ar     1 ZINC000003812869   -0.0800
29     C29    -1.8671    5.0412    1.6600 C.ar     1 ZINC000003812869   -0.1000
30     C30    -1.8499    3.6590    1.6484 C.ar     1 ZINC000003812869   -0.0800
31     H31    -1.5266    1.2170    3.6965 H        1 ZINC000003812869    0.4200
32     H32    -3.9214    1.8822    7.3269 H        1 ZINC000003812869    0.1300
33     H33    -2.4545    2.0125    8.3140 H        1 ZINC000003812869    0.1100
34     H34     1.2715    3.1678    0.4678 H        1 ZINC000003812869    0.1200
35     H35     1.2382    5.6298    0.4817 H        1 ZINC000003812869    0.1400
36     H36    -0.7716    6.8297    1.2459 H        1 ZINC000003812869    0.1400
37     H37    -2.7486    5.5675    1.9953 H        1 ZINC000003812869    0.1400
38     H38    -2.7170    3.1054    1.9771 H        1 ZINC000003812869    0.1400
@<TRIPOS>BOND
1     1     2     1
2     1     3     1
3     1     4     1
4     1     5     1
5     5     6     1
6     5     7     1
7     5     25    1
8     7     8     2
9     7     9     am
10    9     10    1
11    9     31    1
12    10    11    1
13    10    23    1
14    10    12    1
15    12    13    2
16    12    14    am
17    14    23    1
18    14    15    1
19    15    16    1
20    15    19    2
21    16    17    ar
22    16    18    ar
23    19    20    1
24    19    21    1
25    21    22    1
26    21    32    1
27    21    33    1
28    22    23    1
29    23    24    1
30    25    30    ar
31    25    26    ar
32    26    27    ar
33    26    34    1
34    27    28    ar
35    27    35    1
36    28    29    ar
37    28    36    1
38    29    30    ar
39    29    37    1
40    30    38    1
@<TRIPOS>SUBSTRUCTURE
1   ZINC000003812869 1     RESIDUE    1   A     ZIN   1
