@<TRIPOS>MOLECULE
ZINC000011617039
54    57    1     0     0
SMALL
USER_CHARGES
@<TRIPOS>ATOM
1      C1      5.1240   -4.3807    0.1316 C.3      1 ZINC000011617039   -0.1000
2      C2      4.6381   -4.1442   -1.2752 C.2      1 ZINC000011617039    0.1200
3      C3      3.3194   -4.1386   -1.6900 C.ar     1 ZINC000011617039   -0.2300
4      C4      2.0756   -4.3270   -1.0489 C.ar     1 ZINC000011617039    0.0000
5      C5      0.9316   -4.2546   -1.7714 C.ar     1 ZINC000011617039   -0.1900
6      C6      0.9465   -3.9955   -3.1501 C.ar     1 ZINC000011617039    0.2500
7      N7     -0.2647   -3.9320   -3.8446 N.pl3    1 ZINC000011617039   -0.5800
8      C8     -1.5193   -4.2549   -3.1604 C.3      1 ZINC000011617039    0.1000
9      C9     -0.2790   -3.5636   -5.1809 C.ar     1 ZINC000011617039    0.4600
10     N10    -0.2671   -4.4883   -6.1356 N.ar     1 ZINC000011617039   -0.5700
11     C11    -0.2811   -4.1390   -7.4132 C.ar     1 ZINC000011617039    0.5700
12     N12    -0.2682   -5.1273   -8.3837 N.pl3    1 ZINC000011617039   -0.6400
13     C13    -0.1723   -4.7795   -9.7345 C.ar     1 ZINC000011617039    0.1400
14     C14     0.5610   -3.6632  -10.1153 C.ar     1 ZINC000011617039   -0.0500
15     C15     0.6542   -3.3227  -11.4507 C.ar     1 ZINC000011617039   -0.1200
16     C16     0.0181   -4.0915  -12.4078 C.ar     1 ZINC000011617039    0.0000
17     C17     0.1216   -3.7166  -13.8637 C.3      1 ZINC000011617039   -0.1400
18     C18    -0.7125   -5.2041  -12.0320 C.ar     1 ZINC000011617039   -0.6600
19     S19    -1.5202   -6.1810  -13.2558 S.o2     1 ZINC000011617039    2.7000
20     N20    -2.6878   -5.2325  -13.9482 N.am     1 ZINC000011617039   -1.2500
21     O21    -0.5558   -6.4335  -14.2684 O.2      1 ZINC000011617039   -0.9600
22     O22    -2.2034   -7.2135  -12.5584 O.2      1 ZINC000011617039   -0.9600
23     C23    -0.8054   -5.5531  -10.6992 C.ar     1 ZINC000011617039   -0.0500
24     N24    -0.3076   -2.8680   -7.7861 N.ar     1 ZINC000011617039   -0.5600
25     C25    -0.3207   -1.8945   -6.8873 C.ar     1 ZINC000011617039    0.2000
26     C26    -0.3118   -2.2151   -5.5439 C.ar     1 ZINC000011617039   -0.2600
27     C27     2.1126   -3.8038   -3.8290 C.ar     1 ZINC000011617039   -0.1900
28     C28     3.3397   -3.8667   -3.1358 C.ar     1 ZINC000011617039    0.1500
29     N29     4.6078   -3.7322   -3.4805 N.2      1 ZINC000011617039   -0.3200
30     N30     5.4075   -3.8965   -2.3438 N.pl3    1 ZINC000011617039   -0.3300
31     C31     6.8703   -3.8178   -2.3264 C.3      1 ZINC000011617039    0.0900
32     H32     5.1813   -3.4295    0.6609 H        1 ZINC000011617039    0.0900
33     H33     4.4302   -5.0432    0.6491 H        1 ZINC000011617039    0.0900
34     H34     6.1119   -4.8403    0.1024 H        1 ZINC000011617039    0.0800
35     H35     2.0363   -4.5281    0.0114 H        1 ZINC000011617039    0.1300
36     H36    -0.0156   -4.4003   -1.2734 H        1 ZINC000011617039    0.1300
37     H37    -1.9352   -3.3497   -2.7179 H        1 ZINC000011617039    0.0600
38     H38    -2.2286   -4.6677   -3.8778 H        1 ZINC000011617039    0.0700
39     H39    -1.3274   -4.9875   -2.3765 H        1 ZINC000011617039    0.0800
40     H40    -0.3258   -6.0607   -8.1261 H        1 ZINC000011617039    0.4300
41     H41     1.0575   -3.0619   -9.3681 H        1 ZINC000011617039    0.1400
42     H42     1.2242   -2.4547  -11.7475 H        1 ZINC000011617039    0.1400
43     H43     0.9877   -4.2096  -14.3052 H        1 ZINC000011617039    0.1000
44     H44    -0.7817   -4.0330  -14.3854 H        1 ZINC000011617039    0.0700
45     H45     0.2335   -2.6361  -13.9536 H        1 ZINC000011617039    0.0800
46     H46    -2.9431   -5.3750  -14.8731 H        1 ZINC000011617039    0.4200
47     H47    -3.1165   -4.5343  -13.4288 H        1 ZINC000011617039    0.4200
48     H48    -1.3758   -6.4222  -10.4064 H        1 ZINC000011617039    0.1500
49     H49    -0.3419   -0.8616   -7.2018 H        1 ZINC000011617039    0.1800
50     H50    -0.3224   -1.4406   -4.7912 H        1 ZINC000011617039    0.1500
51     H51     2.0974   -3.6055   -4.8906 H        1 ZINC000011617039    0.1100
52     H52     7.1765   -2.7890   -2.1368 H        1 ZINC000011617039    0.0800
53     H53     7.2596   -4.4637   -1.5394 H        1 ZINC000011617039    0.0900
54     H54     7.2631   -4.1421   -3.2901 H        1 ZINC000011617039    0.1000
@<TRIPOS>BOND
1     1     2     1
2     1     32    1
3     1     33    1
4     1     34    1
5     2     30    1
6     2     3     2
7     3     28    ar
8     3     4     ar
9     4     5     ar
10    4     35    1
11    5     6     ar
12    5     36    1
13    6     7     1
14    6     27    ar
15    7     8     1
16    7     9     1
17    8     37    1
18    8     38    1
19    8     39    1
20    9     26    ar
21    9     10    ar
22    10    11    ar
23    11    12    1
24    11    24    ar
25    12    13    1
26    12    40    1
27    13    23    ar
28    13    14    ar
29    14    15    ar
30    14    41    1
31    15    16    ar
32    15    42    1
33    16    17    1
34    16    18    ar
35    17    43    1
36    17    44    1
37    17    45    1
38    18    19    1
39    18    23    ar
40    19    20    am
41    19    21    2
42    19    22    2
43    20    46    1
44    20    47    1
45    23    48    1
46    24    25    ar
47    25    26    ar
48    25    49    1
49    26    50    1
50    27    28    ar
51    27    51    1
52    28    29    2
53    29    30    1
54    30    31    1
55    31    52    1
56    31    53    1
57    31    54    1
@<TRIPOS>SUBSTRUCTURE
1   ZINC000011617039 1     RESIDUE    1   A     ZIN   1
