@<TRIPOS>MOLECULE
ZINC000002020233
30   32    0    0    0
SMALL
USER_CHARGES
NO_NAME
@<TRIPOS>ATOM
1 O1        0.0021    -0.0041     0.0020 O.2    1 <0>      -0.4700
2 C2       -0.0144     1.2109     0.0087 C.2    1 <0>       0.6600
3 N3       -1.1938     1.8623     0.0290 N.am   1 <0>      -0.6600
4 C4       -1.2171     3.2531     0.1849 C.ar   1 <0>       0.1900
5 C5       -2.3886     3.9693    -0.0075 C.ar   1 <0>      -0.1300
6 C6       -2.3847     5.3438     0.1380 C.ar   1 <0>      -0.0500
7 C7       -1.2158     6.0037     0.4731 C.ar   1 <0>      -0.0600
8 Cl8      -1.2158     7.7310     0.6467 Cl     1 <0>      -0.0500
9 C9       -0.0457     5.2896     0.6709 C.ar   1 <0>      -0.0300
10 C10      -0.0472     3.9179     0.5337 C.ar   1 <0>      -0.1800
11 C11       1.2078     3.1176     0.7770 C.3    1 <0>       0.2800
12 C12       2.3817     3.9049     0.3662 C.1    1 <0>      -0.2300
13 C13       3.3180     4.5329     0.0385 C.1    1 <0>      -0.0200
14 C14       4.4919     5.3202    -0.3723 C.3    1 <0>      -0.0700
15 C15       5.4349     5.8095     0.7288 C.3    1 <0>      -0.1600
16 C16       5.8693     4.6759    -0.2025 C.3    1 <0>      -0.1500
17 C17       1.3161     2.7743     2.2640 C.3    1 <0>       0.4500
18 F18       0.2021     2.0220     2.6513 F      1 <0>      -0.1700
19 F19       2.4807     2.0321     2.4876 F      1 <0>      -0.1600
20 F20       1.3647     3.9550     3.0129 F      1 <0>      -0.1600
21 O21       1.1457     1.8935     0.0013 O.3    1 <0>      -0.3100
22 H22      -2.0238     1.3691    -0.0643 H      1 <0>       0.4400
23 H23      -3.3011     3.4549    -0.2705 H      1 <0>       0.1500
24 H24      -3.2961     5.9039    -0.0105 H      1 <0>       0.1500
25 H25       0.8662     5.8062     0.9317 H      1 <0>       0.1500
26 H26       4.3435     5.9709    -1.2340 H      1 <0>       0.1400
27 H27       5.9069     6.7823     0.5916 H      1 <0>       0.1100
28 H28       5.1860     5.5483     1.7574 H      1 <0>       0.1000
29 H29       5.9061     3.6690     0.2134 H      1 <0>       0.1000
30 H30       6.6270     4.9030    -0.9524 H      1 <0>       0.1100
@<TRIPOS>BOND
1    1    2 2
2    2   21 1
3    2    3 am
4    3    4 1
5    3   22 1
6    4   10 ar
7    4    5 ar
8    5    6 ar
9    5   23 1
10    6    7 ar
11    6   24 1
12    7    8 1
13    7    9 ar
14    9   10 ar
15    9   25 1
16   10   11 1
17   11   12 1
18   11   17 1
19   11   21 1
20   12   13 3
21   13   14 1
22   14   16 1
23   14   15 1
24   14   26 1
25   15   16 1
26   15   27 1
27   15   28 1
28   16   29 1
29   16   30 1
30   17   18 1
31   17   19 1
32   17   20 1
