@<TRIPOS>MOLECULE
ZINC000000002005
14   14    0    0    0
SMALL
USER_CHARGES
NO_NAME
@<TRIPOS>ATOM
1 N1       -0.0162     1.3436     0.0094 N.am   1 <0>      -0.8300
2 C2        0.0021    -0.0041     0.0020 C.2    1 <0>       0.5800
3 O3        1.0625    -0.5973    -0.0113 O.2    1 <0>      -0.5300
4 C4       -1.2707    -0.7622     0.0101 C.ar   1 <0>       0.0200
5 C5       -1.2541    -2.1561     0.0082 C.ar   1 <0>       0.1100
6 N6       -2.3916    -2.8278     0.0154 N.ar   1 <0>      -0.4400
7 C7       -3.5429    -2.1800     0.0244 C.ar   1 <0>       0.0800
8 C8       -3.5629    -0.7924     0.0258 C.ar   1 <0>       0.0500
9 N9       -2.4327    -0.1147     0.0247 N.ar   1 <0>      -0.4100
10 H10       0.8172     1.8399     0.0041 H      1 <0>       0.4100
11 H11      -0.8627     1.8171     0.0160 H      1 <0>       0.4100
12 H12      -0.3130    -2.6859     0.0005 H      1 <0>       0.1800
13 H13      -4.4712    -2.7318     0.0302 H      1 <0>       0.1800
14 H14      -4.5064    -0.2669     0.0328 H      1 <0>       0.1800
@<TRIPOS>BOND
1    1    2 am
2    1   10 1
3    1   11 1
4    2    3 2
5    2    4 1
6    4    9 ar
7    4    5 ar
8    5    6 ar
9    5   12 1
10    6    7 ar
11    7    8 ar
12    7   13 1
13    8    9 ar
14    8   14 1
