@<TRIPOS>MOLECULE
ZINC000000155269
43    44    1     0     0
SMALL
USER_CHARGES
@<TRIPOS>ATOM
1      C1     -0.0184    1.5028    0.0103 C.3      1 ZINC000000155269   -0.1200
2      C2      0.0021   -0.0041    0.0020 C.ar     1 ZINC000000155269   -0.0800
3      C3      0.0057   -0.6885   -1.1987 C.ar     1 ZINC000000155269   -0.1200
4      C4      0.0245   -2.0710   -1.2063 C.ar     1 ZINC000000155269   -0.1100
5      C5      0.0400   -2.7685   -0.0132 C.ar     1 ZINC000000155269   -0.1300
6      C6      0.0373   -2.0838    1.1879 C.ar     1 ZINC000000155269   -0.0900
7      C7      0.0229   -0.7017    1.1955 C.ar     1 ZINC000000155269   -0.0800
8      C8      0.0199    0.0446    2.5047 C.3      1 ZINC000000155269    0.1700
9      H9     -0.5794    0.9497    2.4056 H        1 ZINC000000155269    0.0800
10     O10    -0.5370   -0.7861    3.5253 O.3      1 ZINC000000155269   -0.3500
11     C11    -1.2047   -0.0643    4.5623 C.3      1 ZINC000000155269    0.0600
12     C12    -1.7583   -1.0491    5.5941 C.3      1 ZINC000000155269    0.0600
13     N13    -0.6450   -1.7411    6.2571 N.3      1 ZINC000000155269   -0.5400
14     C14     0.1531   -0.8052    7.0603 C.3      1 ZINC000000155269    0.0200
15     C15    -1.1332   -2.8566    7.0790 C.3      1 ZINC000000155269    0.0200
16     C16     1.4329    0.4158    2.8745 C.ar     1 ZINC000000155269   -0.1100
17     C17     2.2676   -0.5259    3.4467 C.ar     1 ZINC000000155269   -0.0800
18     C18     3.5637   -0.1855    3.7860 C.ar     1 ZINC000000155269   -0.1200
19     C19     4.0253    1.0965    3.5526 C.ar     1 ZINC000000155269   -0.1200
20     C20     3.1908    2.0379    2.9796 C.ar     1 ZINC000000155269   -0.1200
21     C21     1.8961    1.6963    2.6364 C.ar     1 ZINC000000155269   -0.1100
22     H22     1.0042    1.8801    0.0026 H        1 ZINC000000155269    0.0700
23     H23    -0.5455    1.8639   -0.8728 H        1 ZINC000000155269    0.0700
24     H24    -0.5286    1.8543    0.9071 H        1 ZINC000000155269    0.0700
25     H25    -0.0064   -0.1435   -2.1310 H        1 ZINC000000155269    0.1200
26     H26     0.0266   -2.6058   -2.1446 H        1 ZINC000000155269    0.1200
27     H27     0.0540   -3.8484   -0.0191 H        1 ZINC000000155269    0.1200
28     H28     0.0491   -2.6288    2.1202 H        1 ZINC000000155269    0.1300
29     H29    -0.4997    0.6113    5.0466 H        1 ZINC000000155269    0.0500
30     H30    -2.0245    0.5122    4.1338 H        1 ZINC000000155269    0.0500
31     H31    -2.3429   -0.5065    6.3371 H        1 ZINC000000155269    0.0500
32     H32    -2.3943   -1.7797    5.0943 H        1 ZINC000000155269    0.0800
33     H33    -0.4792   -0.3501    7.8227 H        1 ZINC000000155269    0.0200
34     H34     0.9704   -1.3437    7.5401 H        1 ZINC000000155269    0.0700
35     H35     0.5601   -0.0275    6.4141 H        1 ZINC000000155269    0.0700
36     H36    -1.6612   -3.5701    6.4464 H        1 ZINC000000155269    0.0700
37     H37    -0.2886   -3.3515    7.5583 H        1 ZINC000000155269    0.0700
38     H38    -1.8120   -2.4757    7.8420 H        1 ZINC000000155269    0.0200
39     H39     1.9071   -1.5275    3.6291 H        1 ZINC000000155269    0.1300
40     H40     4.2157   -0.9210    4.2337 H        1 ZINC000000155269    0.1200
41     H41     5.0377    1.3627    3.8183 H        1 ZINC000000155269    0.1200
42     H42     3.5513    3.0396    2.7976 H        1 ZINC000000155269    0.1200
43     H43     1.2441    2.4318    2.1887 H        1 ZINC000000155269    0.1200
@<TRIPOS>BOND
1     1     2     1
2     1     22    1
3     1     23    1
4     1     24    1
5     2     7     ar
6     2     3     ar
7     3     4     ar
8     3     25    1
9     4     5     ar
10    4     26    1
11    5     6     ar
12    5     27    1
13    6     7     ar
14    6     28    1
15    7     8     1
16    8     9     1
17    8     10    1
18    8     16    1
19    10    11    1
20    11    12    1
21    11    29    1
22    11    30    1
23    12    13    1
24    12    31    1
25    12    32    1
26    13    14    1
27    13    15    1
28    14    33    1
29    14    34    1
30    14    35    1
31    15    36    1
32    15    37    1
33    15    38    1
34    16    21    ar
35    16    17    ar
36    17    18    ar
37    17    39    1
38    18    19    ar
39    18    40    1
40    19    20    ar
41    19    41    1
42    20    21    ar
43    20    42    1
44    21    43    1
@<TRIPOS>SUBSTRUCTURE
1   ZINC000000155269 1     RESIDUE    1   A     ZIN   1
