@<TRIPOS>MOLECULE
ZINC000003920355
84    86    1     0     0
SMALL
USER_CHARGES
@<TRIPOS>ATOM
1      C1      0.9690    1.7109    0.1499 C.3      1 ZINC000003920355   -0.1400
2      C2      0.7418    0.1996    0.0772 C.3      1 ZINC000003920355   -0.1200
3      C3      1.3064   -0.4532    1.3125 C.2      1 ZINC000003920355    0.4600
4      O4      1.8361    0.2210    2.1638 O.2      1 ZINC000003920355   -0.5000
5      O5      1.2208   -1.7839    1.4671 O.3      1 ZINC000003920355   -0.3400
6      C6      1.7860   -2.3441    2.6816 C.3      1 ZINC000003920355    0.3200
7      H7      2.7991   -1.9660    2.8189 H        1 ZINC000003920355    0.0800
8      O8      0.9809   -1.9663    3.8001 O.3      1 ZINC000003920355   -0.7400
9      P9      1.6014   -1.5443    5.2245 P.3      1 ZINC000003920355    2.4500
10     O10     2.5018   -2.6151    5.7071 O.2      1 ZINC000003920355   -0.9800
11     C11     2.5436    0.0056    5.0417 C.3      1 ZINC000003920355   -0.7600
12     C12     3.7753   -0.2462    4.1697 C.3      1 ZINC000003920355   -0.1100
13     C13     4.6408    1.0149    4.1332 C.3      1 ZINC000003920355   -0.1000
14     C14     5.8725    0.7631    3.2611 C.3      1 ZINC000003920355   -0.0800
15     C15     6.7250    2.0053    3.2252 C.ar     1 ZINC000003920355   -0.0800
16     C16     6.5107    2.9627    2.2514 C.ar     1 ZINC000003920355   -0.1200
17     C17     7.2927    4.1021    2.2184 C.ar     1 ZINC000003920355   -0.1200
18     C18     8.2887    4.2844    3.1596 C.ar     1 ZINC000003920355   -0.1300
19     C19     8.5023    3.3274    4.1339 C.ar     1 ZINC000003920355   -0.1200
20     C20     7.7175    2.1900    4.1695 C.ar     1 ZINC000003920355   -0.1200
21     C21     0.2525   -1.2973    6.4258 C.3      1 ZINC000003920355   -0.7500
22     C22    -0.4495   -2.6084    6.6694 C.2      1 ZINC000003920355    0.5700
23     O23     0.0341   -3.4238    7.4258 O.2      1 ZINC000003920355   -0.5400
24     N24    -1.6147   -2.8747    6.0467 N.am     1 ZINC000003920355   -0.5900
25     C25    -2.4069   -4.1089    6.1974 C.3      1 ZINC000003920355    0.1200
26     C26    -3.8541   -3.6988    5.8268 C.3      1 ZINC000003920355   -0.1000
27     H27    -4.3504   -3.2145    6.6677 H        1 ZINC000003920355    0.0800
28     C28    -4.6585   -4.9059    5.3402 C.3      1 ZINC000003920355   -0.0700
29     C29    -4.7464   -5.9451    6.4597 C.3      1 ZINC000003920355   -0.1200
30     C30    -5.5509   -7.1521    5.9731 C.3      1 ZINC000003920355   -0.1200
31     C31    -6.9602   -6.7021    5.5831 C.3      1 ZINC000003920355   -0.1200
32     C32    -6.8723   -5.6630    4.4635 C.3      1 ZINC000003920355   -0.1200
33     C33    -6.0679   -4.4559    4.9501 C.3      1 ZINC000003920355   -0.1200
34     C34    -3.6067   -2.6923    4.6722 C.3      1 ZINC000003920355   -0.1000
35     C35    -2.3095   -1.9800    5.1094 C.3      1 ZINC000003920355    0.0500
36     H36    -1.6764   -1.7969    4.2413 H        1 ZINC000003920355    0.0800
37     C37    -2.6440   -0.6746    5.7840 C.2      1 ZINC000003920355    0.4800
38     O38    -2.4684   -0.5458    6.9836 O.co2    1 ZINC000003920355   -0.6800
39     O39    -3.0901    0.2527    5.1301 O.co2    1 ZINC000003920355   -0.6900
40     C40     1.8217   -3.8697    2.5710 C.3      1 ZINC000003920355   -0.1100
41     C41     2.7278   -4.2756    1.4069 C.3      1 ZINC000003920355   -0.1500
42     C42     2.3663   -4.4627    3.8720 C.3      1 ZINC000003920355   -0.1600
43     H43     2.0379    1.9151    0.2125 H        1 ZINC000003920355    0.0600
44     H44     0.5607    2.1832   -0.7436 H        1 ZINC000003920355    0.0700
45     H45     0.4703    2.1112    1.0326 H        1 ZINC000003920355    0.0700
46     H46    -0.3271   -0.0045    0.0145 H        1 ZINC000003920355    0.1100
47     H47     1.2405   -0.2007   -0.8055 H        1 ZINC000003920355    0.1100
48     H48     1.9136    0.7605    4.5714 H        1 ZINC000003920355    0.1100
49     H49     2.8596    0.3567    6.0241 H        1 ZINC000003920355    0.1100
50     H50     4.3529   -1.0714    4.5863 H        1 ZINC000003920355    0.0800
51     H51     3.4586   -0.4989    3.1578 H        1 ZINC000003920355    0.0800
52     H52     4.0632    1.8401    3.7166 H        1 ZINC000003920355    0.0600
53     H53     4.9576    1.2676    5.1451 H        1 ZINC000003920355    0.0600
54     H54     6.4501   -0.0620    3.6778 H        1 ZINC000003920355    0.0700
55     H55     5.5557    0.5105    2.2493 H        1 ZINC000003920355    0.0700
56     H56     5.7326    2.8203    1.5161 H        1 ZINC000003920355    0.1200
57     H57     7.1258    4.8498    1.4571 H        1 ZINC000003920355    0.1200
58     H58     8.9001    5.1742    3.1334 H        1 ZINC000003920355    0.1200
59     H59     9.2807    3.4696    4.8690 H        1 ZINC000003920355    0.1200
60     H60     7.8845    1.4423    4.9308 H        1 ZINC000003920355    0.1200
61     H61     0.6650   -0.9262    7.3640 H        1 ZINC000003920355    0.1400
62     H62    -0.4586   -0.5725    6.0296 H        1 ZINC000003920355    0.1300
63     H63    -2.0442   -4.8781    5.5156 H        1 ZINC000003920355    0.0700
64     H64    -2.3650   -4.4632    7.2273 H        1 ZINC000003920355    0.0700
65     H65    -4.1649   -5.3462    4.4738 H        1 ZINC000003920355    0.0700
66     H66    -3.7424   -6.2657    6.7375 H        1 ZINC000003920355    0.0700
67     H67    -5.2401   -5.5048    7.3261 H        1 ZINC000003920355    0.0600
68     H68    -5.0572   -7.5924    5.1067 H        1 ZINC000003920355    0.0600
69     H69    -5.6135   -7.8924    6.7707 H        1 ZINC000003920355    0.0600
70     H70    -7.5333   -7.5621    5.2364 H        1 ZINC000003920355    0.0600
71     H71    -7.4538   -6.2619    6.4495 H        1 ZINC000003920355    0.0600
72     H72    -6.3786   -6.1032    3.5972 H        1 ZINC000003920355    0.0600
73     H73    -7.8763   -5.3424    4.1857 H        1 ZINC000003920355    0.0600
74     H74    -6.5615   -4.0157    5.8165 H        1 ZINC000003920355    0.0600
75     H75    -6.0052   -3.7156    4.1526 H        1 ZINC000003920355    0.0700
76     H76    -3.4633   -3.2168    3.7274 H        1 ZINC000003920355    0.0700
77     H77    -4.4287   -1.9804    4.5984 H        1 ZINC000003920355    0.0800
78     H78     0.8136   -4.2448    2.3947 H        1 ZINC000003920355    0.1000
79     H79     3.7359   -3.9004    1.5832 H        1 ZINC000003920355    0.0600
80     H80     2.7532   -5.3624    1.3281 H        1 ZINC000003920355    0.0700
81     H81     2.3398   -3.8531    0.4801 H        1 ZINC000003920355    0.0600
82     H82     1.6540   -4.2861    4.6780 H        1 ZINC000003920355    0.0800
83     H83     2.5158   -5.5352    3.7478 H        1 ZINC000003920355    0.0600
84     H84     3.3170   -3.9893    4.1171 H        1 ZINC000003920355    0.0800
@<TRIPOS>BOND
1     1     2     1
2     1     43    1
3     1     44    1
4     1     45    1
5     2     3     1
6     2     46    1
7     2     47    1
8     3     4     2
9     3     5     1
10    5     6     1
11    6     7     1
12    6     8     1
13    6     40    1
14    8     9     1
15    9     10    2
16    9     11    1
17    9     21    1
18    11    12    1
19    11    48    1
20    11    49    1
21    12    13    1
22    12    50    1
23    12    51    1
24    13    14    1
25    13    52    1
26    13    53    1
27    14    15    1
28    14    54    1
29    14    55    1
30    15    20    ar
31    15    16    ar
32    16    17    ar
33    16    56    1
34    17    18    ar
35    17    57    1
36    18    19    ar
37    18    58    1
38    19    20    ar
39    19    59    1
40    20    60    1
41    21    22    1
42    21    61    1
43    21    62    1
44    22    23    2
45    22    24    am
46    24    35    1
47    24    25    1
48    25    26    1
49    25    63    1
50    25    64    1
51    26    27    1
52    26    28    1
53    26    34    1
54    28    33    1
55    28    29    1
56    28    65    1
57    29    30    1
58    29    66    1
59    29    67    1
60    30    31    1
61    30    68    1
62    30    69    1
63    31    32    1
64    31    70    1
65    31    71    1
66    32    33    1
67    32    72    1
68    32    73    1
69    33    74    1
70    33    75    1
71    34    35    1
72    34    76    1
73    34    77    1
74    35    36    1
75    35    37    1
76    37    38    ar
77    37    39    ar
78    40    41    1
79    40    42    1
80    40    78    1
81    41    79    1
82    41    80    1
83    41    81    1
84    42    82    1
85    42    83    1
86    42    84    1
@<TRIPOS>SUBSTRUCTURE
1   ZINC000003920355 1     RESIDUE    1   A     ZIN   1
