@<TRIPOS>MOLECULE
ZINC000006845963
60    60    1     0     0
SMALL
USER_CHARGES
@<TRIPOS>ATOM
1      C1     -0.0187    1.5258    0.0104 C.3      1 ZINC000006845963   -0.1500
2      C2      0.0021   -0.0041    0.0020 C.3      1 ZINC000006845963   -0.1300
3      C3     -1.4333   -0.5336    0.0129 C.3      1 ZINC000006845963   -0.1200
4      C4     -1.4126   -2.0635    0.0045 C.3      1 ZINC000006845963   -0.1200
5      C5     -2.8479   -2.5931    0.0153 C.3      1 ZINC000006845963   -0.1200
6      C6     -2.8272   -4.1229    0.0069 C.3      1 ZINC000006845963   -0.1200
7      C7     -4.2626   -4.6525    0.0178 C.3      1 ZINC000006845963   -0.1200
8      C8     -4.2418   -6.1823    0.0094 C.3      1 ZINC000006845963   -0.1200
9      C9     -5.6772   -6.7119    0.0202 C.3      1 ZINC000006845963   -0.1200
10     C10    -5.6565   -8.2417    0.0118 C.3      1 ZINC000006845963   -0.1200
11     C11    -7.0918   -8.7713    0.0227 C.3      1 ZINC000006845963   -0.1200
12     C12    -7.0711  -10.3012    0.0143 C.3      1 ZINC000006845963   -0.1200
13     C13    -8.5065  -10.8307    0.0251 C.3      1 ZINC000006845963   -0.1200
14     C14    -8.4857  -12.3606    0.0167 C.3      1 ZINC000006845963   -0.1200
15     C15    -9.9211  -12.8902    0.0276 C.3      1 ZINC000006845963   -0.1400
16     C16    -9.9004  -14.4200    0.0191 C.3      1 ZINC000006845963    0.0400
17     N17   -11.2748  -14.9271    0.0295 N.ar     1 ZINC000006845963   -0.3300
18     C18   -11.8680  -15.1504    1.1859 C.ar     1 ZINC000006845963    0.1200
19     C19   -13.1639  -15.6282    1.2350 C.ar     1 ZINC000006845963   -0.1200
20     C20   -13.8394  -15.8723    0.0490 C.ar     1 ZINC000006845963    0.0000
21     C21   -13.1829  -15.6255   -1.1471 C.ar     1 ZINC000006845963   -0.1200
22     C22   -11.8881  -15.1431   -1.1177 C.ar     1 ZINC000006845963    0.1200
23     H23     1.0039    1.9031    0.0027 H        1 ZINC000006845963    0.0500
24     H24    -0.5459    1.8868   -0.8726 H        1 ZINC000006845963    0.0500
25     H25    -0.5289    1.8773    0.9072 H        1 ZINC000006845963    0.0500
26     H26     0.5123   -0.3556   -0.8948 H        1 ZINC000006845963    0.0600
27     H27     0.5293   -0.3651    0.8851 H        1 ZINC000006845963    0.0600
28     H28    -1.9435   -0.1821    0.9097 H        1 ZINC000006845963    0.0600
29     H29    -1.9605   -0.1726   -0.8702 H        1 ZINC000006845963    0.0600
30     H30    -0.9024   -2.4150   -0.8923 H        1 ZINC000006845963    0.0600
31     H31    -0.8854   -2.4246    0.8875 H        1 ZINC000006845963    0.0600
32     H32    -3.3581   -2.2415    0.9121 H        1 ZINC000006845963    0.0600
33     H33    -3.3751   -2.2320   -0.8677 H        1 ZINC000006845963    0.0600
34     H34    -2.3170   -4.4744   -0.8899 H        1 ZINC000006845963    0.0600
35     H35    -2.3000   -4.4840    0.8900 H        1 ZINC000006845963    0.0600
36     H36    -4.7728   -4.3010    0.9146 H        1 ZINC000006845963    0.0600
37     H37    -4.7898   -4.2914   -0.8653 H        1 ZINC000006845963    0.0600
38     H38    -3.7316   -6.5338   -0.8874 H        1 ZINC000006845963    0.0600
39     H39    -3.7146   -6.5434    0.8924 H        1 ZINC000006845963    0.0600
40     H40    -6.1874   -6.3604    0.9170 H        1 ZINC000006845963    0.0600
41     H41    -6.2044   -6.3508   -0.8628 H        1 ZINC000006845963    0.0600
42     H42    -5.1463   -8.5933   -0.8850 H        1 ZINC000006845963    0.0600
43     H43    -5.1293   -8.6028    0.8949 H        1 ZINC000006845963    0.0600
44     H44    -7.6020   -8.4198    0.9195 H        1 ZINC000006845963    0.0600
45     H45    -7.6190   -8.4102   -0.8604 H        1 ZINC000006845963    0.0600
46     H46    -6.5609  -10.6527   -0.8825 H        1 ZINC000006845963    0.0600
47     H47    -6.5439  -10.6622    0.8973 H        1 ZINC000006845963    0.0600
48     H48    -9.0167  -10.4792    0.9219 H        1 ZINC000006845963    0.0700
49     H49    -9.0337  -10.4697   -0.8579 H        1 ZINC000006845963    0.0700
50     H50    -7.9755  -12.7121   -0.8801 H        1 ZINC000006845963    0.0700
51     H51    -7.9586  -12.7217    0.8998 H        1 ZINC000006845963    0.0700
52     H52   -10.4313  -12.5386    0.9244 H        1 ZINC000006845963    0.0800
53     H53   -10.4483  -12.5291   -0.8555 H        1 ZINC000006845963    0.0800
54     H54    -9.3902  -14.7715   -0.8776 H        1 ZINC000006845963    0.1300
55     H55    -9.3732  -14.7811    0.9022 H        1 ZINC000006845963    0.1300
56     H56   -11.3349  -14.9580    2.1052 H        1 ZINC000006845963    0.2000
57     H57   -13.6443  -15.8094    2.1851 H        1 ZINC000006845963    0.1900
58     H58   -14.8526  -16.2461    0.0566 H        1 ZINC000006845963    0.1800
59     H59   -13.6784  -15.8048   -2.0899 H        1 ZINC000006845963    0.1900
60     H60   -11.3699  -14.9484   -2.0450 H        1 ZINC000006845963    0.2000
@<TRIPOS>BOND
1     1     2     1
2     1     23    1
3     1     24    1
4     1     25    1
5     2     3     1
6     2     26    1
7     2     27    1
8     3     4     1
9     3     28    1
10    3     29    1
11    4     5     1
12    4     30    1
13    4     31    1
14    5     6     1
15    5     32    1
16    5     33    1
17    6     7     1
18    6     34    1
19    6     35    1
20    7     8     1
21    7     36    1
22    7     37    1
23    8     9     1
24    8     38    1
25    8     39    1
26    9     10    1
27    9     40    1
28    9     41    1
29    10    11    1
30    10    42    1
31    10    43    1
32    11    12    1
33    11    44    1
34    11    45    1
35    12    13    1
36    12    46    1
37    12    47    1
38    13    14    1
39    13    48    1
40    13    49    1
41    14    15    1
42    14    50    1
43    14    51    1
44    15    16    1
45    15    52    1
46    15    53    1
47    16    17    1
48    16    54    1
49    16    55    1
50    17    22    ar
51    17    18    ar
52    18    19    ar
53    18    56    1
54    19    20    ar
55    19    57    1
56    20    21    ar
57    20    58    1
58    21    22    ar
59    21    59    1
60    22    60    1
@<TRIPOS>SUBSTRUCTURE
1   ZINC000006845963 1     RESIDUE    1   A     ZIN   1
