@<TRIPOS>MOLECULE
ZINC000000895457
18   18    0    0    0
SMALL
USER_CHARGES
NO_NAME
@<TRIPOS>ATOM
1 O1        0.0021    -0.0041     0.0020 O.co2  1 <0>      -0.6700
2 C2       -0.0145     1.2150     0.0087 C.2    1 <0>       0.4900
3 O3        1.0330     1.8389     0.0021 O.co2  1 <0>      -0.6300
4 C4       -1.3296     1.9507     0.0190 C.3    1 <0>      -0.0400
5 H5       -1.3410     2.6964     0.8138 H      1 <0>       0.1400
6 C6       -1.5837     2.6186    -1.3495 C.3    1 <0>      -0.1200
7 C7       -3.0998     2.4707    -1.5925 C.3    1 <0>       0.0900
8 H8       -3.2836     1.8850    -2.4932 H      1 <0>       0.0900
9 O9       -3.7124     3.7569    -1.7042 O.3    1 <0>      -0.5400
10 C10      -3.6343     1.7259    -0.3503 C.3    1 <0>      -0.0400
11 N11      -2.4558     0.9965     0.1876 N.4    1 <0>      -0.4900
12 H12      -2.2871     0.1566    -0.3456 H      1 <0>       0.4300
13 H13      -2.5929     0.7743     1.1622 H      1 <0>       0.4300
14 H14      -1.3070     3.6722    -1.3137 H      1 <0>       0.1200
15 H15      -1.0232     2.1055    -2.1310 H      1 <0>       0.1000
16 H16      -4.6666     3.7261    -1.8577 H      1 <0>       0.3900
17 H17      -4.0084     2.4362     0.3870 H      1 <0>       0.1300
18 H18      -4.4183     1.0245    -0.6357 H      1 <0>       0.1300
@<TRIPOS>BOND
1    1    2 ar
2    2    3 ar
3    2    4 1
4    4    5 1
5    4   11 1
6    4    6 1
7    6    7 1
8    6   14 1
9    6   15 1
10    7    8 1
11    7    9 1
12    7   10 1
13    9   16 1
14   10   11 1
15   10   17 1
16   10   18 1
17   11   12 1
18   11   13 1
