@<TRIPOS>MOLECULE
ZINC000001995484
47    48    1     0     0
SMALL
USER_CHARGES
@<TRIPOS>ATOM
1      C1     -0.0187    1.5258    0.0104 C.3      1 ZINC000001995484   -0.1500
2      C2      0.0021   -0.0041    0.0020 C.3      1 ZINC000001995484   -0.1200
3      C3      0.7182   -0.4975   -1.2568 C.3      1 ZINC000001995484   -0.1500
4      C4      0.7421   -0.5109    1.2415 C.3      1 ZINC000001995484    0.1100
5      H5      1.7647   -0.1336    1.2338 H        1 ZINC000001995484    0.1200
6      N6      0.7620   -1.9797    1.2335 N.3      1 ZINC000001995484   -0.8300
7      C7      0.0367   -0.0249    2.4814 C.2      1 ZINC000001995484    0.4700
8      O8     -0.7063   -0.7640    3.0828 O.2      1 ZINC000001995484   -0.5100
9      O9      0.2338    1.2291    2.9177 O.3      1 ZINC000001995484   -0.3100
10     C10    -0.4783    1.6289    4.1183 C.3      1 ZINC000001995484    0.0700
11     C11    -0.1303    3.0794    4.4585 C.3      1 ZINC000001995484    0.1000
12     H12    -0.7312    3.4079    5.3065 H        1 ZINC000001995484    0.1000
13     C13    -0.4230    3.9710    3.2501 C.3      1 ZINC000001995484    0.0500
14     O14     0.2753    3.4703    2.1084 O.3      1 ZINC000001995484   -0.5300
15     O15     1.2560    3.1707    4.7932 O.3      1 ZINC000001995484   -0.3700
16     C16     1.5610    4.2067    5.7290 C.3      1 ZINC000001995484    0.2900
17     N17     3.0007    4.2115    6.0001 N.pl3    1 ZINC000001995484   -0.4600
18     C18     3.9279    3.3730    5.4526 C.2      1 ZINC000001995484    0.2300
19     N19     5.1093    3.6586    5.9168 N.2      1 ZINC000001995484   -0.4200
20     C20     5.0115    4.6933    6.7866 C.2      1 ZINC000001995484   -0.1400
21     C21     3.6625    5.0614    6.8442 C.2      1 ZINC000001995484    0.3100
22     N22     3.2839    6.0701    7.6378 N.2      1 ZINC000001995484   -0.5800
23     C23     4.1586    6.7253    8.3679 C.2      1 ZINC000001995484    0.6600
24     N24     3.7234    7.7524    9.1671 N.pl3    1 ZINC000001995484   -0.8200
25     N25     5.4855    6.4137    8.3545 N.am     1 ZINC000001995484   -0.6600
26     C26     5.9430    5.4094    7.5744 C.2      1 ZINC000001995484    0.6000
27     O27     7.1279    5.1231    7.5555 O.2      1 ZINC000001995484   -0.5000
28     H28     1.0039    1.9031    0.0027 H        1 ZINC000001995484    0.0600
29     H29    -0.5459    1.8868   -0.8726 H        1 ZINC000001995484    0.0500
30     H30    -0.5289    1.8773    0.9072 H        1 ZINC000001995484    0.0800
31     H31    -1.0205   -0.3814    0.0098 H        1 ZINC000001995484    0.0700
32     H32     1.7408   -0.1202   -1.2645 H        1 ZINC000001995484    0.0600
33     H33     0.7330   -1.5874   -1.2628 H        1 ZINC000001995484    0.0500
34     H34     0.1910   -0.1364   -2.1398 H        1 ZINC000001995484    0.0600
35     H35    -0.1750   -2.3541    1.2404 H        1 ZINC000001995484    0.3500
36     H36     1.2855   -2.3299    0.4452 H        1 ZINC000001995484    0.3600
37     H37    -1.5518    1.5428    3.9497 H        1 ZINC000001995484    0.0900
38     H38    -0.1874    0.9818    4.9458 H        1 ZINC000001995484    0.0800
39     H39    -1.4944    3.9710    3.0496 H        1 ZINC000001995484    0.0600
40     H40    -0.0928    4.9883    3.4607 H        1 ZINC000001995484    0.0500
41     H41     0.1356    3.9879    1.3036 H        1 ZINC000001995484    0.3700
42     H42     1.2663    5.1702    5.3132 H        1 ZINC000001995484    0.0800
43     H43     1.0171    4.0298    6.6569 H        1 ZINC000001995484    0.0800
44     H44     3.7132    2.5896    4.7409 H        1 ZINC000001995484    0.2300
45     H45     2.7821    7.9856    9.1876 H        1 ZINC000001995484    0.4300
46     H46     4.3571    8.2452    9.7117 H        1 ZINC000001995484    0.4200
47     H47     6.1051    6.9174    8.9053 H        1 ZINC000001995484    0.4200
@<TRIPOS>BOND
1     1     2     1
2     1     28    1
3     1     29    1
4     1     30    1
5     2     3     1
6     2     4     1
7     2     31    1
8     3     32    1
9     3     33    1
10    3     34    1
11    4     5     1
12    4     6     1
13    4     7     1
14    6     35    1
15    6     36    1
16    7     8     2
17    7     9     1
18    9     10    1
19    10    11    1
20    10    37    1
21    10    38    1
22    11    12    1
23    11    13    1
24    11    15    1
25    13    14    1
26    13    39    1
27    13    40    1
28    14    41    1
29    15    16    1
30    16    17    1
31    16    42    1
32    16    43    1
33    17    21    1
34    17    18    1
35    18    19    2
36    18    44    1
37    19    20    1
38    20    26    1
39    20    21    2
40    21    22    1
41    22    23    2
42    23    24    1
43    23    25    1
44    24    45    1
45    24    46    1
46    25    26    am
47    25    47    1
48    26    27    2
@<TRIPOS>SUBSTRUCTURE
1   ZINC000001995484 1     RESIDUE    1   A     ZIN   1
