@<TRIPOS>MOLECULE
ZINC000043200832
68    71    1     0     0
SMALL
USER_CHARGES
@<TRIPOS>ATOM
1      C1      0.3375    1.3224    0.0833 C.3      1 ZINC000043200832    0.0800
2      N2      0.2199   -0.1271   -0.0937 N.am     1 ZINC000043200832   -0.6200
3      C3      0.5895   -1.0308    0.9986 C.3      1 ZINC000043200832    0.0800
4      C4     -0.2284   -0.6293   -1.2613 C.2      1 ZINC000043200832    0.5200
5      O5     -0.4408    0.1110   -2.1981 O.2      1 ZINC000043200832   -0.5300
6      C6     -0.4656   -2.1108   -1.4028 C.3      1 ZINC000043200832   -0.1100
7      H7      0.3325   -2.6563   -0.8991 H        1 ZINC000043200832    0.0900
8      C8     -1.8102   -2.4747   -0.7701 C.3      1 ZINC000043200832   -0.1100
9      C9     -2.0511   -3.9788   -0.9138 C.3      1 ZINC000043200832   -0.1300
10     C10    -2.0674   -4.3533   -2.3971 C.3      1 ZINC000043200832    0.1400
11     H11    -2.8655   -3.8078   -2.9008 H        1 ZINC000043200832    0.1200
12     N12    -2.2981   -5.7934   -2.5347 N.am     1 ZINC000043200832   -0.7000
13     C13    -3.5557   -6.2779   -2.5313 C.2      1 ZINC000043200832    0.5100
14     O14    -4.4972   -5.5211   -2.4143 O.2      1 ZINC000043200832   -0.5000
15     C15    -3.7909   -7.7462   -2.6716 C.2      1 ZINC000043200832    0.5000
16     O16    -2.8494   -8.5030   -2.7886 O.2      1 ZINC000043200832   -0.4500
17     N17    -5.0485   -8.2306   -2.6682 N.am     1 ZINC000043200832   -0.6300
18     C18    -5.2739   -9.5849   -2.9035 C.ar     1 ZINC000043200832    0.3600
19     C19    -6.5770  -10.0580   -3.0082 C.ar     1 ZINC000043200832   -0.1800
20     C20    -6.7873  -11.4056   -3.2426 C.ar     1 ZINC000043200832   -0.0400
21     C21    -5.6816  -12.2372   -3.3648 C.ar     1 ZINC000043200832   -0.1200
22     Cl22   -5.8892  -13.9353   -3.6597 Cl       1 ZINC000043200832   -0.0500
23     C23    -4.4138  -11.6980   -3.2494 C.ar     1 ZINC000043200832    0.1500
24     N24    -4.2450  -10.4083   -3.0308 N.ar     1 ZINC000043200832   -0.4600
25     C25    -0.7228   -3.9893   -3.0299 C.3      1 ZINC000043200832    0.1400
26     H26    -0.7344   -4.2561   -4.0866 H        1 ZINC000043200832    0.1100
27     N27     0.3498   -4.7225   -2.3529 N.am     1 ZINC000043200832   -0.7000
28     C28     1.5047   -4.9766   -2.9996 C.2      1 ZINC000043200832    0.5900
29     O29     1.6564   -4.5972   -4.1451 O.2      1 ZINC000043200832   -0.5000
30     C30     2.5828   -5.7135   -2.3192 C.2      1 ZINC000043200832    0.0100
31     N31     2.5344   -6.1726   -1.1018 N.2      1 ZINC000043200832   -0.4200
32     C32     3.5989   -6.8068   -0.6672 C.2      1 ZINC000043200832    0.0800
33     C33     4.6081   -6.8913   -1.5698 C.2      1 ZINC000043200832   -0.3500
34     C34     5.9299   -7.5754   -1.3040 C.3      1 ZINC000043200832    0.0900
35     N35     5.7797   -8.4478   -0.1296 N.4      1 ZINC000043200832   -0.3900
36     H36     5.1632   -9.2135   -0.3568 H        1 ZINC000043200832    0.4300
37     C37     7.0943   -8.9770    0.2575 C.3      1 ZINC000043200832   -0.0500
38     C38     5.2144   -7.6800    0.9878 C.3      1 ZINC000043200832   -0.0100
39     C39     3.7295   -7.4092    0.7271 C.3      1 ZINC000043200832   -0.0700
40     S40     4.1436   -6.1235   -3.0220 S.3      1 ZINC000043200832    0.3600
41     C41    -0.4819   -2.4853   -2.8862 C.3      1 ZINC000043200832   -0.1100
42     H42     1.3304    1.6470   -0.2278 H        1 ZINC000043200832    0.0600
43     H43    -0.4157    1.8248   -0.5236 H        1 ZINC000043200832    0.0800
44     H44     0.1853    1.5738    1.1329 H        1 ZINC000043200832    0.0700
45     H45     0.9190   -0.4465    1.8578 H        1 ZINC000043200832    0.0800
46     H46    -0.2740   -1.6340    1.2791 H        1 ZINC000043200832    0.0600
47     H47     1.3984   -1.6841    0.6717 H        1 ZINC000043200832    0.0600
48     H48    -1.7986   -2.2079    0.2867 H        1 ZINC000043200832    0.0800
49     H49    -2.6083   -1.9292   -1.2737 H        1 ZINC000043200832    0.0800
50     H50    -1.2530   -4.5243   -0.4101 H        1 ZINC000043200832    0.0700
51     H51    -3.0090   -4.2380   -0.4630 H        1 ZINC000043200832    0.0900
52     H52    -1.5456   -6.3983   -2.6282 H        1 ZINC000043200832    0.4100
53     H53    -5.7968   -7.6362   -2.5018 H        1 ZINC000043200832    0.4300
54     H54    -7.4140   -9.3830   -2.9076 H        1 ZINC000043200832    0.1500
55     H55    -7.7884  -11.8017   -3.3283 H        1 ZINC000043200832    0.1500
56     H56    -3.5506  -12.3402   -3.3436 H        1 ZINC000043200832    0.1700
57     H57     0.2288   -5.0251   -1.4393 H        1 ZINC000043200832    0.4100
58     H58     6.2130   -8.1735   -2.1702 H        1 ZINC000043200832    0.1500
59     H59     6.6966   -6.8260   -1.1074 H        1 ZINC000043200832    0.1500
60     H60     7.7612   -8.1502    0.5017 H        1 ZINC000043200832    0.1300
61     H61     6.9836   -9.6237    1.1279 H        1 ZINC000043200832    0.1300
62     H62     7.5133   -9.5498   -0.5697 H        1 ZINC000043200832    0.1300
63     H63     5.3227   -8.2495    1.9109 H        1 ZINC000043200832    0.1500
64     H64     5.7449   -6.7325    1.0821 H        1 ZINC000043200832    0.1300
65     H65     3.3471   -6.7080    1.4688 H        1 ZINC000043200832    0.1300
66     H66     3.1699   -8.3431    0.7789 H        1 ZINC000043200832    0.1100
67     H67    -1.2800   -1.9398   -3.3898 H        1 ZINC000043200832    0.1000
68     H68     0.4760   -2.2260   -3.3369 H        1 ZINC000043200832    0.0800
@<TRIPOS>BOND
1     1     2     1
2     1     42    1
3     1     43    1
4     1     44    1
5     2     3     1
6     2     4     am
7     3     45    1
8     3     46    1
9     3     47    1
10    4     5     2
11    4     6     1
12    6     7     1
13    6     41    1
14    6     8     1
15    8     9     1
16    8     48    1
17    8     49    1
18    9     10    1
19    9     50    1
20    9     51    1
21    10    11    1
22    10    12    1
23    10    25    1
24    12    13    am
25    12    52    1
26    13    14    2
27    13    15    1
28    15    16    2
29    15    17    am
30    17    18    1
31    17    53    1
32    18    24    ar
33    18    19    ar
34    19    20    ar
35    19    54    1
36    20    21    ar
37    20    55    1
38    21    22    1
39    21    23    ar
40    23    24    ar
41    23    56    1
42    25    26    1
43    25    27    1
44    25    41    1
45    27    28    am
46    27    57    1
47    28    29    2
48    28    30    1
49    30    40    1
50    30    31    2
51    31    32    1
52    32    39    1
53    32    33    2
54    33    34    1
55    33    40    1
56    34    35    1
57    34    58    1
58    34    59    1
59    35    36    1
60    35    37    1
61    35    38    1
62    37    60    1
63    37    61    1
64    37    62    1
65    38    39    1
66    38    63    1
67    38    64    1
68    39    65    1
69    39    66    1
70    41    67    1
71    41    68    1
@<TRIPOS>SUBSTRUCTURE
1   ZINC000043200832 1     RESIDUE    1   A     ZIN   1
