@<TRIPOS>MOLECULE
ZINC000001690604
25    25    1     0     0
SMALL
USER_CHARGES
@<TRIPOS>ATOM
1      C1     -0.0187    1.5258    0.0104 C.3      1 ZINC000001690604   -0.1800
2      C2      0.0021   -0.0041    0.0020 C.3      1 ZINC000001690604    0.0300
3      H3      0.5123   -0.3556   -0.8948 H        1 ZINC000001690604    0.1400
4      N4     -1.3761   -0.5125    0.0124 N.4      1 ZINC000001690604   -0.6400
5      H5     -1.8641   -0.1783   -0.8050 H        1 ZINC000001690604    0.4400
6      H6     -1.3624   -1.5214    0.0069 H        1 ZINC000001690604    0.4300
7      H7     -1.8484   -0.1871    0.8426 H        1 ZINC000001690604    0.4300
8      C8      0.7421   -0.5109    1.2415 C.3      1 ZINC000001690604   -0.1000
9      C9      0.8700   -2.0108    1.1719 C.ar     1 ZINC000001690604   -0.1400
10     C10    -0.1184   -2.8136    1.7110 C.ar     1 ZINC000001690604   -0.1200
11     C11    -0.0034   -4.1888    1.6484 C.ar     1 ZINC000001690604   -0.1400
12     C12     1.1046   -4.7643    1.0437 C.ar     1 ZINC000001690604    0.1300
13     O13     1.2197   -6.1170    0.9805 O.3      1 ZINC000001690604   -0.4900
14     C14     2.0947   -3.9567    0.5032 C.ar     1 ZINC000001690604   -0.1400
15     C15     1.9727   -2.5820    0.5640 C.ar     1 ZINC000001690604   -0.0900
16     H16     1.0039    1.9031    0.0027 H        1 ZINC000001690604    0.1100
17     H17    -0.5459    1.8868   -0.8726 H        1 ZINC000001690604    0.0800
18     H18    -0.5289    1.8773    0.9072 H        1 ZINC000001690604    0.0800
19     H19     1.7350   -0.0630    1.2804 H        1 ZINC000001690604    0.1200
20     H20     0.1838   -0.2350    2.1361 H        1 ZINC000001690604    0.1000
21     H21    -0.9807   -2.3650    2.1816 H        1 ZINC000001690604    0.1300
22     H22    -0.7754   -4.8154    2.0702 H        1 ZINC000001690604    0.1400
23     H23     0.8299   -6.5082    0.1867 H        1 ZINC000001690604    0.4000
24     H24     2.9583   -4.4024    0.0321 H        1 ZINC000001690604    0.1400
25     H25     2.7430   -1.9528    0.1431 H        1 ZINC000001690604    0.1300
@<TRIPOS>BOND
1     1     2     1
2     1     16    1
3     1     17    1
4     1     18    1
5     2     3     1
6     2     4     1
7     2     8     1
8     4     5     1
9     4     6     1
10    4     7     1
11    8     9     1
12    8     19    1
13    8     20    1
14    9     15    ar
15    9     10    ar
16    10    11    ar
17    10    21    1
18    11    12    ar
19    11    22    1
20    12    13    1
21    12    14    ar
22    13    23    1
23    14    15    ar
24    14    24    1
25    15    25    1
@<TRIPOS>SUBSTRUCTURE
1   ZINC000001690604 1     RESIDUE    1   A     ZIN   1
