@<TRIPOS>MOLECULE
ZINC000000057340
32   32    0    0    0
SMALL
USER_CHARGES
NO_NAME
@<TRIPOS>ATOM
1 C1       -0.0173     1.4248     0.0099 C.3    1 <0>       0.0300
2 O2        0.0021    -0.0041     0.0020 O.3    1 <0>      -0.3100
3 C3        0.6262    -0.6188     1.0422 C.ar   1 <0>       0.1000
4 C4        1.2019     0.1365     2.0506 C.ar   1 <0>      -0.1700
5 C5        1.8358    -0.4901     3.1079 C.ar   1 <0>      -0.1200
6 C6        1.8971    -1.8698     3.1612 C.ar   1 <0>      -0.1200
7 C7        1.3249    -2.6298     2.1575 C.ar   1 <0>      -0.1700
8 C8        0.6830    -2.0084     1.0988 C.ar   1 <0>       0.1000
9 O9        0.1197    -2.7543     0.1110 O.3    1 <0>      -0.2900
10 C10       0.2274    -4.1743     0.2286 C.3    1 <0>       0.0300
11 C11      -0.4602    -4.8387    -0.9659 C.3    1 <0>       0.1100
12 H12      -0.0395    -4.4461    -1.8917 H      1 <0>       0.1200
13 O13      -1.8613    -4.5610    -0.9240 O.3    1 <0>      -0.5400
14 C14      -0.2380    -6.3512    -0.9058 C.3    1 <0>       0.0600
15 O15      -0.7879    -6.9690    -2.0992 O.3    1 <0>      -0.3600
16 C16      -0.6740    -8.3065    -2.2031 C.2    1 <0>       0.6500
17 N17      -1.1634    -8.9425    -3.2859 N.am   1 <0>      -0.8200
18 O18      -0.1299    -8.9403    -1.3205 O.2    1 <0>      -0.5800
19 H19       1.0053     1.8021     0.0021 H      1 <0>       0.0600
20 H20      -0.5445     1.7859    -0.8732 H      1 <0>       0.1000
21 H21      -0.5275     1.7763     0.9067 H      1 <0>       0.0600
22 H22       1.1560     1.2148     2.0110 H      1 <0>       0.1400
23 H23       2.2843     0.0999     3.8935 H      1 <0>       0.1300
24 H24       2.3934    -2.3556     3.9884 H      1 <0>       0.1300
25 H25       1.3748    -3.7077     2.2012 H      1 <0>       0.1300
26 H26       1.2795    -4.4587     0.2466 H      1 <0>       0.0800
27 H27      -0.2528    -4.4999     1.1514 H      1 <0>       0.0700
28 H28      -2.3023    -4.8827    -0.1258 H      1 <0>       0.3800
29 H29       0.8304    -6.5595    -0.8482 H      1 <0>       0.0900
30 H30      -0.7353    -6.7568    -0.0247 H      1 <0>       0.0800
31 H31      -1.5977    -8.4366    -3.9904 H      1 <0>       0.4100
32 H32      -1.0813    -9.9061    -3.3607 H      1 <0>       0.4300
@<TRIPOS>BOND
1    1    2 1
2    1   19 1
3    1   20 1
4    1   21 1
5    2    3 1
6    3    8 ar
7    3    4 ar
8    4    5 ar
9    4   22 1
10    5    6 ar
11    5   23 1
12    6    7 ar
13    6   24 1
14    7    8 ar
15    7   25 1
16    8    9 1
17    9   10 1
18   10   11 1
19   10   26 1
20   10   27 1
21   11   12 1
22   11   13 1
23   11   14 1
24   13   28 1
25   14   15 1
26   14   29 1
27   14   30 1
28   15   16 1
29   16   17 am
30   16   18 2
31   17   31 1
32   17   32 1
