@<TRIPOS>MOLECULE
ZINC000001530939
55    56    1     0     0
SMALL
USER_CHARGES
@<TRIPOS>ATOM
1      C1     -0.4722    1.3813   -0.0519 C.3      1 ZINC000001530939   -0.1500
2      C2     -0.5785   -0.1410   -0.1625 C.3      1 ZINC000001530939   -0.1200
3      C3      0.2317   -0.6226   -1.3677 C.3      1 ZINC000001530939   -0.1200
4      C4      0.1254   -2.1449   -1.4784 C.3      1 ZINC000001530939    0.0700
5      O5      0.8821   -2.5947   -2.6040 O.3      1 ZINC000001530939   -0.3100
6      C6      0.8928   -3.9289   -2.8451 C.ar     1 ZINC000001530939    0.3400
7      C7      1.6248   -4.4193   -3.9334 C.ar     1 ZINC000001530939   -0.1400
8      C8      1.6419   -5.7820   -4.1871 C.ar     1 ZINC000001530939   -0.0500
9      C9      2.4042   -6.3365   -5.3271 C.2      1 ZINC000001530939    0.5800
10     O10     2.4962   -7.5402   -5.4686 O.2      1 ZINC000001530939   -0.5000
11     N11     2.9968   -5.5071   -6.2088 N.am     1 ZINC000001530939   -0.7300
12     C12     3.7518   -6.0563   -7.3378 C.3      1 ZINC000001530939    0.1000
13     C13     4.3177   -4.9102   -8.1786 C.3      1 ZINC000001530939   -0.0300
14     N14     5.0748   -5.4610   -9.3107 N.4      1 ZINC000001530939   -0.3800
15     H15     5.7809   -6.0944   -8.9668 H        1 ZINC000001530939    0.4300
16     C16     4.1613   -6.1847  -10.2049 C.3      1 ZINC000001530939   -0.0200
17     C17     4.9673   -6.8774  -11.3055 C.3      1 ZINC000001530939   -0.1900
18     C18     5.7173   -4.3657  -10.0492 C.3      1 ZINC000001530939   -0.0100
19     C19     6.7781   -3.7075   -9.1646 C.3      1 ZINC000001530939   -0.1900
20     C20     0.9050   -6.6282   -3.3180 C.ar     1 ZINC000001530939   -0.0900
21     C21     0.8734   -8.0155   -3.5081 C.ar     1 ZINC000001530939   -0.1000
22     C22     0.1553   -8.7972   -2.6533 C.ar     1 ZINC000001530939   -0.1200
23     C23    -0.5486   -8.2337   -1.5915 C.ar     1 ZINC000001530939   -0.0800
24     C24    -0.5395   -6.8895   -1.3784 C.ar     1 ZINC000001530939   -0.1100
25     C25     0.1909   -6.0511   -2.2398 C.ar     1 ZINC000001530939    0.1700
26     N26     0.2204   -4.7287   -2.0481 N.ar     1 ZINC000001530939   -0.5100
27     H27     0.5726    1.6642    0.0762 H        1 ZINC000001530939    0.0600
28     H28    -0.8641    1.8398   -0.9598 H        1 ZINC000001530939    0.0600
29     H29    -1.0494    1.7244    0.8067 H        1 ZINC000001530939    0.0600
30     H30    -0.1867   -0.5995    0.7454 H        1 ZINC000001530939    0.0700
31     H31    -1.6233   -0.4239   -0.2906 H        1 ZINC000001530939    0.0700
32     H32    -0.1602   -0.1641   -2.2756 H        1 ZINC000001530939    0.0700
33     H33     1.2765   -0.3397   -1.2396 H        1 ZINC000001530939    0.0700
34     H34     0.5172   -2.6034   -0.5705 H        1 ZINC000001530939    0.0700
35     H35    -0.9195   -2.4278   -1.6065 H        1 ZINC000001530939    0.0700
36     H36     2.1720   -3.7406   -4.5708 H        1 ZINC000001530939    0.1500
37     H37     2.9234   -4.5465   -6.0958 H        1 ZINC000001530939    0.4100
38     H38     4.5705   -6.6706   -6.9629 H        1 ZINC000001530939    0.0900
39     H39     3.0916   -6.6672   -7.9535 H        1 ZINC000001530939    0.0900
40     H40     3.4991   -4.2959   -8.5535 H        1 ZINC000001530939    0.1400
41     H41     4.9779   -4.2994   -7.5629 H        1 ZINC000001530939    0.1400
42     H42     3.6096   -6.9315   -9.6338 H        1 ZINC000001530939    0.1300
43     H43     3.4608   -5.4815  -10.6554 H        1 ZINC000001530939    0.1300
44     H44     5.4435   -6.1257  -11.9349 H        1 ZINC000001530939    0.0800
45     H45     5.7314   -7.5096  -10.8531 H        1 ZINC000001530939    0.0800
46     H46     4.3012   -7.4905  -11.9126 H        1 ZINC000001530939    0.1100
47     H47     6.1889   -4.7615  -10.9487 H        1 ZINC000001530939    0.1400
48     H48     4.9668   -3.6260  -10.3280 H        1 ZINC000001530939    0.1300
49     H49     7.1979   -2.8446   -9.6816 H        1 ZINC000001530939    0.1100
50     H50     6.3215   -3.3840   -8.2293 H        1 ZINC000001530939    0.0800
51     H51     7.5708   -4.4251   -8.9528 H        1 ZINC000001530939    0.0800
52     H52     1.4150   -8.4635   -4.3281 H        1 ZINC000001530939    0.1600
53     H53     0.1315   -9.8668   -2.8012 H        1 ZINC000001530939    0.1300
54     H54    -1.1106   -8.8735   -0.9272 H        1 ZINC000001530939    0.1400
55     H55    -1.0911   -6.4682   -0.5510 H        1 ZINC000001530939    0.1400
@<TRIPOS>BOND
1     1     2     1
2     1     27    1
3     1     28    1
4     1     29    1
5     2     3     1
6     2     30    1
7     2     31    1
8     3     4     1
9     3     32    1
10    3     33    1
11    4     5     1
12    4     34    1
13    4     35    1
14    5     6     1
15    6     26    ar
16    6     7     ar
17    7     8     ar
18    7     36    1
19    8     9     1
20    8     20    ar
21    9     10    2
22    9     11    am
23    11    12    1
24    11    37    1
25    12    13    1
26    12    38    1
27    12    39    1
28    13    14    1
29    13    40    1
30    13    41    1
31    14    15    1
32    14    16    1
33    14    18    1
34    16    17    1
35    16    42    1
36    16    43    1
37    17    44    1
38    17    45    1
39    17    46    1
40    18    19    1
41    18    47    1
42    18    48    1
43    19    49    1
44    19    50    1
45    19    51    1
46    20    25    ar
47    20    21    ar
48    21    22    ar
49    21    52    1
50    22    23    ar
51    22    53    1
52    23    24    ar
53    23    54    1
54    24    25    ar
55    24    55    1
56    25    26    ar
@<TRIPOS>SUBSTRUCTURE
1   ZINC000001530939 1     RESIDUE    1   A     ZIN   1
