@<TRIPOS>MOLECULE
ZINC000009212654
49    49    1     0     0
SMALL
USER_CHARGES
@<TRIPOS>ATOM
1      C1      0.7543    1.5223   -1.4896 C.3      1 ZINC000009212654   -0.1100
2      C2      0.9727    0.0459   -1.2809 C.2      1 ZINC000009212654   -0.1600
3      C3      1.0683   -0.4733    0.0220 C.2      1 ZINC000009212654   -0.0700
4      C4      0.9637    0.3562    1.0934 C.2      1 ZINC000009212654   -0.1600
5      C5      0.9342   -0.1805    2.4051 C.2      1 ZINC000009212654   -0.0800
6      C6     -0.0063   -1.0632    2.6971 C.2      1 ZINC000009212654   -0.1200
7      C7     -0.9802   -1.4492    1.6138 C.3      1 ZINC000009212654   -0.1200
8      C8     -0.1582   -1.7027    4.0466 C.3      1 ZINC000009212654   -0.0800
9      C9      1.1272   -1.5306    4.8585 C.3      1 ZINC000009212654   -0.1200
10     C10     1.5390   -0.0541    4.8120 C.3      1 ZINC000009212654   -0.1100
11     C11     1.9758    0.2807    3.3826 C.3      1 ZINC000009212654   -0.0200
12     C12     3.3067   -0.4123    3.0835 C.3      1 ZINC000009212654   -0.1400
13     C13     2.1538    1.7943    3.2480 C.3      1 ZINC000009212654   -0.1400
14     C14     1.0778   -0.7872   -2.3570 C.2      1 ZINC000009212654   -0.0500
15     C15     1.2810   -2.1606   -2.1629 C.2      1 ZINC000009212654   -0.1900
16     C16     1.4914   -2.9850   -3.2451 C.2      1 ZINC000009212654    0.0100
17     C17     1.6239   -2.4373   -4.5274 C.2      1 ZINC000009212654   -0.0900
18     C18     2.8079   -1.5647   -4.8555 C.3      1 ZINC000009212654   -0.1100
19     C19     0.6725   -2.6962   -5.4880 C.2      1 ZINC000009212654   -0.1500
20     C20    -0.4928   -3.4028   -5.1496 C.2      1 ZINC000009212654    0.4400
21     O21    -0.7288   -3.7302   -3.8782 O.co2    1 ZINC000009212654   -0.6800
22     O22    -1.3638   -3.7468   -6.0995 O.co2    1 ZINC000009212654   -0.7100
23     H23     1.7184    2.0265   -1.5554 H        1 ZINC000009212654    0.0600
24     H24     0.1978    1.6803   -2.4135 H        1 ZINC000009212654    0.0600
25     H25     0.1886    1.9280   -0.6508 H        1 ZINC000009212654    0.0600
26     H26     1.2249   -1.5314    0.1715 H        1 ZINC000009212654    0.1100
27     H27     0.9030    1.4243    0.9455 H        1 ZINC000009212654    0.1100
28     H28    -0.5968   -2.3136    1.0717 H        1 ZINC000009212654    0.0700
29     H29    -1.9420   -1.6986    2.0618 H        1 ZINC000009212654    0.0500
30     H30    -1.1062   -0.6144    0.9242 H        1 ZINC000009212654    0.0700
31     H31    -0.9866   -1.2337    4.5776 H        1 ZINC000009212654    0.0700
32     H32    -0.3671   -2.7652    3.9216 H        1 ZINC000009212654    0.0700
33     H33     0.9502   -1.8290    5.8919 H        1 ZINC000009212654    0.0600
34     H34     1.9176   -2.1449    4.4273 H        1 ZINC000009212654    0.0700
35     H35     0.6926    0.5712    5.0962 H        1 ZINC000009212654    0.0600
36     H36     2.3697    0.1160    5.4969 H        1 ZINC000009212654    0.0600
37     H37     3.1855   -1.4908    3.1842 H        1 ZINC000009212654    0.0600
38     H38     3.6193   -0.1752    2.0665 H        1 ZINC000009212654    0.0600
39     H39     4.0635   -0.0645    3.7866 H        1 ZINC000009212654    0.0500
40     H40     2.8452    2.1483    4.0127 H        1 ZINC000009212654    0.0500
41     H41     2.5536    2.0268    2.2610 H        1 ZINC000009212654    0.0600
42     H42     1.1894    2.2862    3.3744 H        1 ZINC000009212654    0.0500
43     H43     1.0044   -0.3884   -3.3579 H        1 ZINC000009212654    0.1100
44     H44     1.2725   -2.5719   -1.1643 H        1 ZINC000009212654    0.1100
45     H45     1.5544   -4.0541   -3.1054 H        1 ZINC000009212654    0.1200
46     H46     3.5878   -2.1694   -5.3182 H        1 ZINC000009212654    0.0700
47     H47     2.5001   -0.7789   -5.5453 H        1 ZINC000009212654    0.0600
48     H48     3.1922   -1.1146   -3.9401 H        1 ZINC000009212654    0.0700
49     H49     0.8223   -2.3557   -6.5019 H        1 ZINC000009212654    0.1100
@<TRIPOS>BOND
1     1     2     1
2     1     23    1
3     1     24    1
4     1     25    1
5     2     3     1
6     2     14    2
7     3     4     2
8     3     26    1
9     4     5     1
10    4     27    1
11    5     11    1
12    5     6     2
13    6     7     1
14    6     8     1
15    7     28    1
16    7     29    1
17    7     30    1
18    8     9     1
19    8     31    1
20    8     32    1
21    9     10    1
22    9     33    1
23    9     34    1
24    10    11    1
25    10    35    1
26    10    36    1
27    11    12    1
28    11    13    1
29    12    37    1
30    12    38    1
31    12    39    1
32    13    40    1
33    13    41    1
34    13    42    1
35    14    15    1
36    14    43    1
37    15    16    2
38    15    44    1
39    16    17    1
40    16    45    1
41    17    18    1
42    17    19    2
43    18    46    1
44    18    47    1
45    18    48    1
46    19    20    1
47    19    49    1
48    20    21    ar
49    20    22    ar
@<TRIPOS>SUBSTRUCTURE
1   ZINC000009212654 1     RESIDUE    1   A     ZIN   1
