@<TRIPOS>MOLECULE
ZINC000008552123
51    53    1     0     0
SMALL
USER_CHARGES
@<TRIPOS>ATOM
1      C1     -0.1990    0.1193    0.4272 C.3      1 ZINC000008552123    0.0200
2      O2     -0.4413   -1.2699    0.1956 O.3      1 ZINC000008552123   -0.2900
3      C3      0.1224   -1.8184   -0.9137 C.ar     1 ZINC000008552123    0.1300
4      C4      0.8955   -1.0405   -1.7572 C.ar     1 ZINC000008552123   -0.1700
5      C5      1.4727   -1.5951   -2.8891 C.ar     1 ZINC000008552123   -0.0800
6      C6      1.2786   -2.9315   -3.1768 C.ar     1 ZINC000008552123   -0.1300
7      C7      0.5028   -3.7145   -2.3357 C.ar     1 ZINC000008552123   -0.1500
8      C8     -0.0713   -3.1663   -1.2025 C.ar     1 ZINC000008552123    0.1200
9      O9     -0.8302   -3.9387   -0.3797 O.3      1 ZINC000008552123   -0.2900
10     C10    -0.9938   -5.3102   -0.7458 C.3      1 ZINC000008552123    0.0200
11     C11     1.9023   -3.5627   -4.3897 C.3      1 ZINC000008552123    0.1000
12     H12     2.8263   -4.0514   -4.0807 H        1 ZINC000008552123    0.1500
13     C13     0.9810   -4.6220   -4.9873 C.3      1 ZINC000008552123   -0.1900
14     C14    -0.1971   -3.9323   -5.6427 C.2      1 ZINC000008552123    0.3500
15     O15    -1.3305   -4.2985   -5.4438 O.2      1 ZINC000008552123   -0.4000
16     C16     0.1055   -2.7631   -6.5581 C.3      1 ZINC000008552123   -0.1600
17     H17     0.5855   -3.1222   -7.4685 H        1 ZINC000008552123    0.1300
18     C18    -1.1918   -2.0327   -6.9108 C.3      1 ZINC000008552123   -0.1000
19     C19    -0.8990   -0.9439   -7.9451 C.3      1 ZINC000008552123   -0.1000
20     C20    -0.4483   -1.5929   -9.2552 C.3      1 ZINC000008552123   -0.1600
21     C21    -2.1655   -0.1217   -8.1925 C.3      1 ZINC000008552123   -0.1500
22     C22     1.0498   -1.8142   -5.8144 C.3      1 ZINC000008552123   -0.0200
23     N23     2.2365   -2.5438   -5.3864 N.4      1 ZINC000008552123   -0.3800
24     H24     2.6903   -2.9637   -6.1837 H        1 ZINC000008552123    0.4300
25     C25     3.1488   -1.5835   -4.7317 C.3      1 ZINC000008552123    0.0000
26     C26     2.3033   -0.7117   -3.7846 C.3      1 ZINC000008552123   -0.1100
27     H27     0.8729    0.2891    0.5289 H        1 ZINC000008552123    0.0600
28     H28    -0.5807    0.6996   -0.4128 H        1 ZINC000008552123    0.0600
29     H29    -0.7043    0.4287    1.3421 H        1 ZINC000008552123    0.1100
30     H30     1.0499    0.0046   -1.5327 H        1 ZINC000008552123    0.1500
31     H31     0.3490   -4.7587   -2.5643 H        1 ZINC000008552123    0.1500
32     H32    -1.4689   -5.3707   -1.7250 H        1 ZINC000008552123    0.0600
33     H33    -0.0182   -5.7947   -0.7849 H        1 ZINC000008552123    0.0600
34     H34    -1.6190   -5.8114   -0.0070 H        1 ZINC000008552123    0.1100
35     H35     1.5258   -5.2013   -5.7327 H        1 ZINC000008552123    0.1300
36     H36     0.6240   -5.2831   -4.1977 H        1 ZINC000008552123    0.1300
37     H37    -1.9079   -2.7430   -7.3238 H        1 ZINC000008552123    0.0900
38     H38    -1.6084   -1.5776   -6.0122 H        1 ZINC000008552123    0.0800
39     H39    -0.1094   -0.2915   -7.5723 H        1 ZINC000008552123    0.0700
40     H40    -1.1932   -2.3216   -9.5748 H        1 ZINC000008552123    0.0600
41     H41    -0.3382   -0.8258  -10.0217 H        1 ZINC000008552123    0.0600
42     H42     0.5077   -2.0937   -9.1025 H        1 ZINC000008552123    0.0500
43     H43    -2.4866    0.3407   -7.2591 H        1 ZINC000008552123    0.0600
44     H44    -1.9569    0.6539   -8.9293 H        1 ZINC000008552123    0.0600
45     H45    -2.9551   -0.7741   -8.5653 H        1 ZINC000008552123    0.0600
46     H46     1.3404   -0.9994   -6.4775 H        1 ZINC000008552123    0.1500
47     H47     0.5391   -1.4051   -4.9426 H        1 ZINC000008552123    0.1400
48     H48     3.9156   -2.1240   -4.1768 H        1 ZINC000008552123    0.1400
49     H49     3.6168   -0.9488   -5.4842 H        1 ZINC000008552123    0.1400
50     H50     1.6669   -0.0512   -4.3735 H        1 ZINC000008552123    0.1100
51     H51     2.9645   -0.1106   -3.1604 H        1 ZINC000008552123    0.1200
@<TRIPOS>BOND
1     1     2     1
2     1     27    1
3     1     28    1
4     1     29    1
5     2     3     1
6     3     8     ar
7     3     4     ar
8     4     5     ar
9     4     30    1
10    5     26    1
11    5     6     ar
12    6     7     ar
13    6     11    1
14    7     8     ar
15    7     31    1
16    8     9     1
17    9     10    1
18    10    32    1
19    10    33    1
20    10    34    1
21    11    12    1
22    11    23    1
23    11    13    1
24    13    14    1
25    13    35    1
26    13    36    1
27    14    15    2
28    14    16    1
29    16    17    1
30    16    18    1
31    16    22    1
32    18    19    1
33    18    37    1
34    18    38    1
35    19    20    1
36    19    21    1
37    19    39    1
38    20    40    1
39    20    41    1
40    20    42    1
41    21    43    1
42    21    44    1
43    21    45    1
44    22    23    1
45    22    46    1
46    22    47    1
47    23    24    1
48    23    25    1
49    25    26    1
50    25    48    1
51    25    49    1
52    26    50    1
53    26    51    1
@<TRIPOS>SUBSTRUCTURE
1   ZINC000008552123 1     RESIDUE    1   A     ZIN   1
