@<TRIPOS>MOLECULE
ZINC000000967520
27    28    1     0     0
SMALL
USER_CHARGES
@<TRIPOS>ATOM
1      C1     -0.0187    1.5258    0.0104 C.3      1 ZINC000000967520   -0.1500
2      C2      0.0021   -0.0041    0.0020 C.3      1 ZINC000000967520   -0.0600
3      C3     -1.4027   -0.5894   -0.1557 C.3      1 ZINC000000967520   -0.1400
4      C4      1.0045   -0.5751   -1.0631 C.3      1 ZINC000000967520   -0.0900
5      H5      0.7954   -0.3321   -2.1049 H        1 ZINC000000967520    0.1100
6      C6      0.9823   -2.0906   -0.6948 C.3      1 ZINC000000967520   -0.1300
7      C7      0.8105   -2.1121    0.8416 C.3      1 ZINC000000967520   -0.1100
8      C8      0.7491   -0.5910    1.2511 C.3      1 ZINC000000967520   -0.1200
9      C9      0.1187   -0.2916    2.6127 C.3      1 ZINC000000967520   -0.1200
10     C10     2.1777   -0.0740    1.0307 C.2      1 ZINC000000967520    0.3700
11     O11     2.9782    0.2487    1.8753 O.2      1 ZINC000000967520   -0.4400
12     C12     2.3522   -0.0384   -0.4905 C.3      1 ZINC000000967520   -0.1800
13     H13     1.0039    1.9031    0.0027 H        1 ZINC000000967520    0.0600
14     H14    -0.5459    1.8868   -0.8726 H        1 ZINC000000967520    0.0600
15     H15    -0.5289    1.8773    0.9072 H        1 ZINC000000967520    0.0600
16     H16    -1.8402   -0.2375   -1.0900 H        1 ZINC000000967520    0.0600
17     H17    -1.3435   -1.6777   -0.1694 H        1 ZINC000000967520    0.0600
18     H18    -2.0253   -0.2699    0.6800 H        1 ZINC000000967520    0.0600
19     H19     0.1416   -2.5876   -1.1787 H        1 ZINC000000967520    0.0800
20     H20     1.9214   -2.5653   -0.9794 H        1 ZINC000000967520    0.0700
21     H21    -0.1117   -2.6254    1.1139 H        1 ZINC000000967520    0.0800
22     H22     1.6676   -2.5927    1.3133 H        1 ZINC000000967520    0.0700
23     H23     0.6982   -0.7794    3.3965 H        1 ZINC000000967520    0.0600
24     H24     0.1133    0.7852    2.7817 H        1 ZINC000000967520    0.0600
25     H25    -0.9043   -0.6672    2.6300 H        1 ZINC000000967520    0.0700
26     H26     3.1584   -0.7057   -0.7954 H        1 ZINC000000967520    0.1000
27     H27     2.5539    0.9791   -0.8254 H        1 ZINC000000967520    0.1000
@<TRIPOS>BOND
1     1     2     1
2     1     13    1
3     1     14    1
4     1     15    1
5     2     8     1
6     2     3     1
7     2     4     1
8     3     16    1
9     3     17    1
10    3     18    1
11    4     5     1
12    4     12    1
13    4     6     1
14    6     7     1
15    6     19    1
16    6     20    1
17    7     8     1
18    7     21    1
19    7     22    1
20    8     9     1
21    8     10    1
22    9     23    1
23    9     24    1
24    9     25    1
25    10    11    2
26    10    12    1
27    12    26    1
28    12    27    1
@<TRIPOS>SUBSTRUCTURE
1   ZINC000000967520 1     RESIDUE    1   A     ZIN   1
