@<TRIPOS>MOLECULE
ZINC000003881640
57    60    1     0     0
SMALL
USER_CHARGES
@<TRIPOS>ATOM
1      C1     -0.7359    1.6331    0.6681 C.3      1 ZINC000003881640   -0.1500
2      C2     -0.4854    0.1490    0.5919 C.2      1 ZINC000003881640    0.4500
3      O3      0.6206   -0.2887    0.8040 O.2      1 ZINC000003881640   -0.5000
4      O4     -1.4911   -0.6867    0.2884 O.3      1 ZINC000003881640   -0.3300
5      C5     -1.1554   -2.0897    0.1238 C.3      1 ZINC000003881640    0.0900
6      C6     -0.6342   -2.6566    1.4192 C.2      1 ZINC000003881640    0.3600
7      C7     -1.1535   -2.1336    2.7336 C.3      1 ZINC000003881640   -0.2100
8      O8      0.1997   -3.5300    1.4039 O.2      1 ZINC000003881640   -0.4400
9      C9     -0.1045   -2.2619   -1.0013 C.3      1 ZINC000003881640   -0.1300
10     C10    -0.7981   -3.0758   -2.1278 C.3      1 ZINC000003881640   -0.1200
11     C11    -2.2853   -2.7911   -1.8908 C.3      1 ZINC000003881640   -0.0800
12     H12    -2.5400   -1.7888   -2.2351 H        1 ZINC000003881640    0.0900
13     C13    -3.2539   -3.8080   -2.4633 C.3      1 ZINC000003881640   -0.0600
14     H14    -3.0389   -4.7926   -2.0480 H        1 ZINC000003881640    0.1000
15     C15    -3.1515   -3.8592   -3.9620 C.2      1 ZINC000003881640   -0.0900
16     C16    -4.2074   -4.1502   -4.7195 C.2      1 ZINC000003881640   -0.1500
17     C17    -5.5135   -4.4260   -4.1245 C.2      1 ZINC000003881640    0.0300
18     C18    -6.5665   -4.7296   -4.9201 C.2      1 ZINC000003881640   -0.2500
19     C19    -7.8424   -4.9830   -4.3925 C.2      1 ZINC000003881640    0.3900
20     O20    -8.7568   -5.2659   -5.1404 O.2      1 ZINC000003881640   -0.4700
21     C21    -8.0896   -4.9084   -2.9079 C.3      1 ZINC000003881640   -0.1700
22     C22    -7.0989   -3.9194   -2.2846 C.3      1 ZINC000003881640   -0.1100
23     C23    -5.6760   -4.3678   -2.6258 C.3      1 ZINC000003881640   -0.0300
24     C24    -5.4181   -5.7526   -2.0285 C.3      1 ZINC000003881640   -0.1500
25     C25    -4.6685   -3.3709   -2.0499 C.3      1 ZINC000003881640   -0.0700
26     H26    -4.8641   -2.3855   -2.4728 H        1 ZINC000003881640    0.0800
27     C27    -4.8077   -3.2962   -0.5339 C.3      1 ZINC000003881640   -0.1200
28     C28    -3.7376   -2.3767    0.0794 C.3      1 ZINC000003881640   -0.1000
29     C29    -2.3771   -2.8742   -0.3427 C.3      1 ZINC000003881640   -0.0400
30     C30    -2.2223   -4.3461    0.0453 C.3      1 ZINC000003881640   -0.1600
31     H31     0.1914    2.1453    0.9247 H        1 ZINC000003881640    0.1000
32     H32    -1.0936    1.9912   -0.2973 H        1 ZINC000003881640    0.1000
33     H33    -1.4866    1.8361    1.4318 H        1 ZINC000003881640    0.1000
34     H34    -1.8318   -1.3002    2.5506 H        1 ZINC000003881640    0.0800
35     H35    -1.6867   -2.9281    3.2557 H        1 ZINC000003881640    0.1000
36     H36    -0.3176   -1.7941    3.3453 H        1 ZINC000003881640    0.0900
37     H37     0.2024   -1.2866   -1.3790 H        1 ZINC000003881640    0.0800
38     H38     0.7610   -2.8070   -0.6246 H        1 ZINC000003881640    0.0900
39     H39    -0.4884   -2.7170   -3.1094 H        1 ZINC000003881640    0.0800
40     H40    -0.5872   -4.1398   -2.0207 H        1 ZINC000003881640    0.0800
41     H41    -2.2019   -3.6555   -4.4344 H        1 ZINC000003881640    0.1200
42     H42    -4.0966   -4.1825   -5.7934 H        1 ZINC000003881640    0.1200
43     H43    -6.4207   -4.7784   -5.9891 H        1 ZINC000003881640    0.1300
44     H44    -9.1087   -4.5680   -2.7247 H        1 ZINC000003881640    0.1000
45     H45    -7.9480   -5.8942   -2.4648 H        1 ZINC000003881640    0.1000
46     H46    -7.2749   -2.9224   -2.6885 H        1 ZINC000003881640    0.0700
47     H47    -7.2282   -3.9057   -1.2024 H        1 ZINC000003881640    0.0800
48     H48    -6.1317   -6.4653   -2.4420 H        1 ZINC000003881640    0.0600
49     H49    -4.4044   -6.0704   -2.2724 H        1 ZINC000003881640    0.0600
50     H50    -5.5345   -5.7087   -0.9456 H        1 ZINC000003881640    0.0700
51     H51    -5.7960   -2.9099   -0.2846 H        1 ZINC000003881640    0.0700
52     H52    -4.7008   -4.2971   -0.1157 H        1 ZINC000003881640    0.0700
53     H53    -3.8614   -1.3613   -0.2971 H        1 ZINC000003881640    0.0800
54     H54    -3.8223   -2.3828    1.1661 H        1 ZINC000003881640    0.0700
55     H55    -3.0570   -4.9182   -0.3596 H        1 ZINC000003881640    0.0800
56     H56    -1.2868   -4.7321   -0.3596 H        1 ZINC000003881640    0.0700
57     H57    -2.2129   -4.4364    1.1315 H        1 ZINC000003881640    0.0600
@<TRIPOS>BOND
1     1     2     1
2     1     31    1
3     1     32    1
4     1     33    1
5     2     3     2
6     2     4     1
7     4     5     1
8     5     29    1
9     5     6     1
10    5     9     1
11    6     7     1
12    6     8     2
13    7     34    1
14    7     35    1
15    7     36    1
16    9     10    1
17    9     37    1
18    9     38    1
19    10    11    1
20    10    39    1
21    10    40    1
22    11    12    1
23    11    29    1
24    11    13    1
25    13    14    1
26    13    25    1
27    13    15    1
28    15    16    2
29    15    41    1
30    16    17    1
31    16    42    1
32    17    23    1
33    17    18    2
34    18    19    1
35    18    43    1
36    19    20    2
37    19    21    1
38    21    22    1
39    21    44    1
40    21    45    1
41    22    23    1
42    22    46    1
43    22    47    1
44    23    24    1
45    23    25    1
46    24    48    1
47    24    49    1
48    24    50    1
49    25    26    1
50    25    27    1
51    27    28    1
52    27    51    1
53    27    52    1
54    28    29    1
55    28    53    1
56    28    54    1
57    29    30    1
58    30    55    1
59    30    56    1
60    30    57    1
@<TRIPOS>SUBSTRUCTURE
1   ZINC000003881640 1     RESIDUE    1   A     ZIN   1
