@<TRIPOS>MOLECULE
ZINC000000113404
39    40    1     0     0
SMALL
USER_CHARGES
@<TRIPOS>ATOM
1      C1     -0.1512    1.4381    0.3612 C.3      1 ZINC000000113404   -0.0500
2      N2     -0.1439   -0.0309    0.3588 N.4      1 ZINC000000113404   -0.3900
3      H3      0.4090   -0.3632   -0.4171 H        1 ZINC000000113404    0.4300
4      C4      0.4346   -0.5198    1.6174 C.3      1 ZINC000000113404   -0.0500
5      C5     -1.5203   -0.5271    0.2272 C.3      1 ZINC000000113404   -0.0100
6      C6     -2.0799   -0.1229   -1.1382 C.3      1 ZINC000000113404   -0.1400
7      C7     -3.5134   -0.6397   -1.2753 C.3      1 ZINC000000113404    0.0200
8      H8     -4.1107   -0.2807   -0.4372 H        1 ZINC000000113404    0.1100
9      C9     -4.1069   -0.1381   -2.5665 C.ar     1 ZINC000000113404   -0.0900
10     C10    -3.4569   -0.3743   -3.7634 C.ar     1 ZINC000000113404   -0.1000
11     C11    -4.0007    0.0854   -4.9480 C.ar     1 ZINC000000113404   -0.1100
12     C12    -5.1960    0.7821   -4.9356 C.ar     1 ZINC000000113404   -0.0300
13     Cl13   -5.8800    1.3594   -6.4231 Cl       1 ZINC000000113404   -0.0600
14     C14    -5.8461    1.0182   -3.7374 C.ar     1 ZINC000000113404   -0.1100
15     C15    -5.3041    0.5530   -2.5541 C.ar     1 ZINC000000113404   -0.0900
16     C16    -3.5060   -2.1467   -1.2777 C.ar     1 ZINC000000113404    0.1200
17     C17    -2.4701   -2.8235   -1.8928 C.ar     1 ZINC000000113404   -0.1800
18     C18    -2.4724   -4.2102   -1.8891 C.ar     1 ZINC000000113404   -0.0700
19     C19    -3.5214   -4.8665   -1.2640 C.ar     1 ZINC000000113404   -0.1700
20     C20    -4.5229   -4.1222   -0.6695 C.ar     1 ZINC000000113404    0.1100
21     N21    -4.4854   -2.8043   -0.6881 N.ar     1 ZINC000000113404   -0.4700
22     H22     0.8701    1.8063    0.4588 H        1 ZINC000000113404    0.1300
23     H23    -0.5805    1.8009   -0.5727 H        1 ZINC000000113404    0.1300
24     H24    -0.7485    1.7971    1.1993 H        1 ZINC000000113404    0.1200
25     H25    -0.1627   -0.1608    2.4555 H        1 ZINC000000113404    0.1200
26     H26     0.4400   -1.6098    1.6156 H        1 ZINC000000113404    0.1200
27     H27     1.4559   -0.1516    1.7150 H        1 ZINC000000113404    0.1300
28     H28    -1.5247   -1.6136    0.3144 H        1 ZINC000000113404    0.1300
29     H29    -2.1385   -0.0968    1.0151 H        1 ZINC000000113404    0.1300
30     H30    -2.0754    0.9636   -1.2255 H        1 ZINC000000113404    0.1000
31     H31    -1.4616   -0.5531   -1.9261 H        1 ZINC000000113404    0.0900
32     H32    -2.5237   -0.9179   -3.7729 H        1 ZINC000000113404    0.1300
33     H33    -3.4926   -0.0989   -5.8830 H        1 ZINC000000113404    0.1400
34     H34    -6.7790    1.5623   -3.7271 H        1 ZINC000000113404    0.1400
35     H35    -5.8116    0.7370   -1.6187 H        1 ZINC000000113404    0.1400
36     H36    -1.6689   -2.2793   -2.3708 H        1 ZINC000000113404    0.1300
37     H37    -1.6762   -4.7656   -2.3623 H        1 ZINC000000113404    0.1400
38     H38    -3.5558   -5.9457   -1.2422 H        1 ZINC000000113404    0.1400
39     H39    -5.3438   -4.6259   -0.1807 H        1 ZINC000000113404    0.1600
@<TRIPOS>BOND
1     1     2     1
2     1     22    1
3     1     23    1
4     1     24    1
5     2     3     1
6     2     4     1
7     2     5     1
8     4     25    1
9     4     26    1
10    4     27    1
11    5     6     1
12    5     28    1
13    5     29    1
14    6     7     1
15    6     30    1
16    6     31    1
17    7     8     1
18    7     9     1
19    7     16    1
20    9     15    ar
21    9     10    ar
22    10    11    ar
23    10    32    1
24    11    12    ar
25    11    33    1
26    12    13    1
27    12    14    ar
28    14    15    ar
29    14    34    1
30    15    35    1
31    16    21    ar
32    16    17    ar
33    17    18    ar
34    17    36    1
35    18    19    ar
36    18    37    1
37    19    20    ar
38    19    38    1
39    20    21    ar
40    20    39    1
@<TRIPOS>SUBSTRUCTURE
1   ZINC000000113404 1     RESIDUE    1   A     ZIN   1
