@<TRIPOS>MOLECULE
ZINC000004228258
31    32    1     0     0
SMALL
USER_CHARGES
@<TRIPOS>ATOM
1      C1     -0.0187    1.5258    0.0104 C.3      1 ZINC000004228258   -0.1800
2      C2      0.0021   -0.0041    0.0020 C.3      1 ZINC000004228258    0.0800
3      H3      0.5123   -0.3556   -0.8948 H        1 ZINC000004228258    0.0900
4      O4      0.6932   -0.4774    1.1597 O.3      1 ZINC000004228258   -0.5300
5      C5     -1.4333   -0.5336    0.0129 C.3      1 ZINC000004228258    0.0600
6      H6     -1.9435   -0.1821    0.9097 H        1 ZINC000004228258    0.1000
7      O7     -2.1245   -0.0603   -1.1448 O.3      1 ZINC000004228258   -0.5600
8      C8     -1.4126   -2.0635    0.0045 C.3      1 ZINC000004228258    0.1300
9      H9     -0.9032   -2.4199   -0.8908 H        1 ZINC000004228258    0.0700
10     C10    -2.8504   -2.6021    0.0326 C.3      1 ZINC000004228258    0.1300
11     N11    -3.4770   -2.1830    1.2945 N.pl3    1 ZINC000004228258   -0.7300
12     C12    -2.7688   -2.3250    2.4776 C.2      1 ZINC000004228258    0.3800
13     C13    -1.3939   -2.5102    2.4422 C.2      1 ZINC000004228258   -0.1500
14     N14    -0.7161   -2.5580    1.2031 N.pl3    1 ZINC000004228258   -0.7200
15     C15    -0.6951   -2.6484    3.6462 C.2      1 ZINC000004228258    0.5200
16     O16     0.5156   -2.8115    3.6503 O.2      1 ZINC000004228258   -0.6300
17     N17    -1.3889   -2.5971    4.8042 N.pl3    1 ZINC000004228258   -0.7100
18     C18    -2.7376   -2.4155    4.7856 C.2      1 ZINC000004228258    0.5800
19     N19    -3.4228   -2.3679    5.9734 N.pl3    1 ZINC000004228258   -0.8400
20     N20    -3.4007   -2.2845    3.6566 N.2      1 ZINC000004228258   -0.6800
21     H21     1.0039    1.9031    0.0027 H        1 ZINC000004228258    0.0600
22     H22    -0.5459    1.8868   -0.8726 H        1 ZINC000004228258    0.0600
23     H23    -0.5289    1.8773    0.9072 H        1 ZINC000004228258    0.0500
24     H24     0.2938   -0.2021    1.9962 H        1 ZINC000004228258    0.3800
25     H25    -1.7251   -0.3356   -1.9813 H        1 ZINC000004228258    0.3700
26     H26    -3.4114   -2.1954   -0.8088 H        1 ZINC000004228258    0.0700
27     H27    -2.8361   -3.6904   -0.0266 H        1 ZINC000004228258    0.0500
28     H28    -4.3732   -1.8120    1.2992 H        1 ZINC000004228258    0.3900
29     H29     0.1863   -2.9088    1.1444 H        1 ZINC000004228258    0.4000
30     H30    -2.9458   -2.4632    6.8126 H        1 ZINC000004228258    0.4000
31     H31    -4.3842   -2.2390    5.9739 H        1 ZINC000004228258    0.3900
@<TRIPOS>BOND
1     1     2     1
2     1     21    1
3     1     22    1
4     1     23    1
5     2     3     1
6     2     4     1
7     2     5     1
8     4     24    1
9     5     6     1
10    5     7     1
11    5     8     1
12    7     25    1
13    8     9     1
14    8     14    1
15    8     10    1
16    10    11    1
17    10    26    1
18    10    27    1
19    11    12    1
20    11    28    1
21    12    20    1
22    12    13    2
23    13    14    1
24    13    15    1
25    14    29    1
26    15    16    2
27    15    17    1
28    17    18    1
29    18    19    1
30    18    20    2
31    19    30    1
32    19    31    1
@<TRIPOS>SUBSTRUCTURE
1   ZINC000004228258 1     RESIDUE    1   A     ZIN   1
