@<TRIPOS>MOLECULE
ZINC000072318121
69    73    1     0     0
SMALL
USER_CHARGES
@<TRIPOS>ATOM
1      C1      3.6004    1.2820    9.0876 C.3      1 ZINC000072318121   -0.1600
2      C2      4.5879    0.2156    8.6096 C.3      1 ZINC000072318121    0.0500
3      N3      4.2340   -0.2040    7.2470 N.3      1 ZINC000072318121   -0.5400
4      C4      2.7908   -0.4561    7.1318 C.3      1 ZINC000072318121    0.0500
5      C5      2.4520   -0.8126    5.6824 C.3      1 ZINC000072318121    0.0600
6      N6      3.2244   -1.9957    5.2783 N.3      1 ZINC000072318121   -0.5400
7      C7      2.8704   -2.4153    3.9157 C.3      1 ZINC000072318121    0.1000
8      C8      3.4899   -3.7583    3.6268 C.ar     1 ZINC000072318121   -0.1600
9      C9      4.7614   -3.8401    3.0755 C.ar     1 ZINC000072318121   -0.0400
10     C10     5.2934   -5.0927    2.8258 C.ar     1 ZINC000072318121   -0.2100
11     C11     4.5409   -6.2208    3.1337 C.ar     1 ZINC000072318121    0.3700
12     N12     5.0639   -7.4871    2.8876 N.pl3    1 ZINC000072318121   -0.6200
13     C13     4.3688   -8.6161    3.2958 C.ar     1 ZINC000072318121    0.5400
14     N14     3.1573   -8.4754    3.8125 N.ar     1 ZINC000072318121   -0.4700
15     C15     2.4605   -9.5272    4.2144 C.ar     1 ZINC000072318121    0.1700
16     C16     3.0115  -10.7918    4.0903 C.ar     1 ZINC000072318121   -0.0400
17     F17     2.3280  -11.8866    4.4898 F        1 ZINC000072318121   -0.1200
18     C18     4.2936  -10.9083    3.5405 C.ar     1 ZINC000072318121    0.2300
19     C19     4.9283  -12.2383    3.3858 C.ar     1 ZINC000072318121   -0.0200
20     C20     4.6948  -13.2373    4.3368 C.ar     1 ZINC000072318121   -0.1400
21     C21     5.2729  -14.4673    4.2063 C.ar     1 ZINC000072318121    0.1600
22     F22     5.0398  -15.4246    5.1307 F        1 ZINC000072318121   -0.1200
23     C23     6.1071  -14.7370    3.1140 C.ar     1 ZINC000072318121    0.0300
24     N24     6.8054  -15.8326    2.7219 N.2      1 ZINC000072318121   -0.4800
25     C25     7.4391  -15.5754    1.6148 C.2      1 ZINC000072318121    0.2900
26     C26     8.3190  -16.5514    0.8771 C.3      1 ZINC000072318121   -0.0800
27     N27     7.1913  -14.2975    1.2199 N.pl3    1 ZINC000072318121   -0.4800
28     C28     7.7232  -13.6392    0.0241 C.3      1 ZINC000072318121    0.1300
29     C29     6.5691  -13.2648   -0.9079 C.3      1 ZINC000072318121   -0.1700
30     C30     8.4800  -12.3738    0.4325 C.3      1 ZINC000072318121   -0.1700
31     C31     6.3445  -13.7359    2.1558 C.ar     1 ZINC000072318121    0.0700
32     C32     5.7500  -12.4917    2.2923 C.ar     1 ZINC000072318121   -0.0600
33     N33     4.9315   -9.8053    3.1537 N.ar     1 ZINC000072318121   -0.5300
34     N34     3.3313   -6.1013    3.6592 N.ar     1 ZINC000072318121   -0.4700
35     C35     2.8009   -4.9203    3.9129 C.ar     1 ZINC000072318121    0.1600
36     C36     4.6676   -1.7436    5.3936 C.3      1 ZINC000072318121    0.0600
37     C37     5.0063   -1.3871    6.8429 C.3      1 ZINC000072318121    0.0600
38     H38     2.5913    0.8700    9.0849 H        1 ZINC000072318121    0.0600
39     H39     3.8630    1.5933   10.0986 H        1 ZINC000072318121    0.0600
40     H40     3.6434    2.1424    8.4198 H        1 ZINC000072318121    0.0600
41     H41     5.5971    0.6276    8.6123 H        1 ZINC000072318121    0.0800
42     H42     4.5449   -0.6448    9.2774 H        1 ZINC000072318121    0.0300
43     H43     2.5130   -1.2839    7.7843 H        1 ZINC000072318121    0.0400
44     H44     2.2408    0.4383    7.4243 H        1 ZINC000072318121    0.0900
45     H45     1.3868   -1.0283    5.6004 H        1 ZINC000072318121    0.0800
46     H46     2.7047    0.0258    5.0332 H        1 ZINC000072318121    0.0400
47     H47     1.7864   -2.4888    3.8282 H        1 ZINC000072318121    0.0900
48     H48     3.2437   -1.6817    3.2012 H        1 ZINC000072318121    0.0500
49     H49     5.3225   -2.9462    2.8465 H        1 ZINC000072318121    0.1300
50     H50     6.2797   -5.1929    2.3972 H        1 ZINC000072318121    0.1300
51     H51     5.9145   -7.5802    2.4306 H        1 ZINC000072318121    0.4300
52     H52     1.4737   -9.4004    4.6345 H        1 ZINC000072318121    0.1900
53     H53     4.0525  -13.0340    5.1810 H        1 ZINC000072318121    0.1500
54     H54     7.7400  -17.0439    0.0958 H        1 ZINC000072318121    0.0900
55     H55     9.1561  -16.0177    0.4271 H        1 ZINC000072318121    0.0800
56     H56     8.6973  -17.2987    1.5747 H        1 ZINC000072318121    0.1000
57     H57     8.4020  -14.3177   -0.4925 H        1 ZINC000072318121    0.1100
58     H58     5.9760  -14.1528   -1.1267 H        1 ZINC000072318121    0.0700
59     H59     5.9397  -12.5174   -0.4248 H        1 ZINC000072318121    0.0700
60     H60     6.9694  -12.8575   -1.8364 H        1 ZINC000072318121    0.0800
61     H61     9.3022  -12.6405    1.0966 H        1 ZINC000072318121    0.0700
62     H62     8.8758  -11.8840   -0.4572 H        1 ZINC000072318121    0.0800
63     H63     7.8012  -11.6953    0.9492 H        1 ZINC000072318121    0.0700
64     H64     5.9255  -11.7222    1.5551 H        1 ZINC000072318121    0.1400
65     H65     1.8115   -4.8615    4.3420 H        1 ZINC000072318121    0.1600
66     H66     5.2175   -2.6380    5.1010 H        1 ZINC000072318121    0.0800
67     H67     4.9453   -0.9158    4.7410 H        1 ZINC000072318121    0.0400
68     H68     6.0716   -1.1714    6.9249 H        1 ZINC000072318121    0.0800
69     H69     4.7537   -2.2254    7.4921 H        1 ZINC000072318121    0.0400
@<TRIPOS>BOND
1     1     2     1
2     1     38    1
3     1     39    1
4     1     40    1
5     2     3     1
6     2     41    1
7     2     42    1
8     3     37    1
9     3     4     1
10    4     5     1
11    4     43    1
12    4     44    1
13    5     6     1
14    5     45    1
15    5     46    1
16    6     7     1
17    6     36    1
18    7     8     1
19    7     47    1
20    7     48    1
21    8     35    ar
22    8     9     ar
23    9     10    ar
24    9     49    1
25    10    11    ar
26    10    50    1
27    11    12    1
28    11    34    ar
29    12    13    1
30    12    51    1
31    13    33    ar
32    13    14    ar
33    14    15    ar
34    15    16    ar
35    15    52    1
36    16    17    1
37    16    18    ar
38    18    19    1
39    18    33    ar
40    19    32    ar
41    19    20    ar
42    20    21    ar
43    20    53    1
44    21    22    1
45    21    23    ar
46    23    31    ar
47    23    24    1
48    24    25    2
49    25    26    1
50    25    27    1
51    26    54    1
52    26    55    1
53    26    56    1
54    27    28    1
55    27    31    1
56    28    29    1
57    28    30    1
58    28    57    1
59    29    58    1
60    29    59    1
61    29    60    1
62    30    61    1
63    30    62    1
64    30    63    1
65    31    32    ar
66    32    64    1
67    34    35    ar
68    35    65    1
69    36    37    1
70    36    66    1
71    36    67    1
72    37    68    1
73    37    69    1
@<TRIPOS>SUBSTRUCTURE
1   ZINC000072318121 1     RESIDUE    1   A     ZIN   1
