@<TRIPOS>MOLECULE
ZINC000003861768
29    30    1     0     0
SMALL
USER_CHARGES
@<TRIPOS>ATOM
1      N1     -0.0165    1.3684    0.0096 N.pl3    1 ZINC000003861768   -0.7900
2      C2      0.0021   -0.0041    0.0020 C.2      1 ZINC000003861768    0.6300
3      N3     -1.1394   -0.6782    0.0038 N.2      1 ZINC000003861768   -0.6300
4      C4     -1.1259   -2.0141   -0.0035 C.2      1 ZINC000003861768    0.6600
5      O5     -2.1732   -2.6383   -0.0023 O.2      1 ZINC000003861768   -0.5200
6      N6      0.0541   -2.6679   -0.0127 N.am     1 ZINC000003861768   -0.5500
7      C7      0.0853   -4.1325   -0.0213 C.3      1 ZINC000003861768    0.2900
8      H8     -0.9215   -4.5373    0.0824 H        1 ZINC000003861768    0.1400
9      O9      0.9434   -4.6290    1.0283 O.3      1 ZINC000003861768   -0.3500
10     C10     1.3271   -5.9645    0.6602 C.3      1 ZINC000003861768    0.0500
11     H11     0.6369   -6.6834    1.1018 H        1 ZINC000003861768    0.1000
12     C12     2.7515   -6.2479    1.1414 C.3      1 ZINC000003861768    0.0800
13     O13     2.7773   -6.2638    2.5701 O.3      1 ZINC000003861768   -0.5600
14     C14     1.2626   -6.0524   -0.8769 C.3      1 ZINC000003861768    0.0500
15     H15     2.2525   -6.2470   -1.2897 H        1 ZINC000003861768    0.0900
16     O16     0.3444   -7.0698   -1.2817 O.3      1 ZINC000003861768   -0.5400
17     C17     0.7534   -4.6566   -1.3180 C.3      1 ZINC000003861768    0.0800
18     H18     1.5838   -4.0145   -1.6115 H        1 ZINC000003861768    0.0900
19     O19    -0.1980   -4.7724   -2.3779 O.3      1 ZINC000003861768   -0.5300
20     C20     1.2070   -1.9634   -0.0144 C.2      1 ZINC000003861768    0.4500
21     N21     1.1744   -0.6542   -0.0127 N.2      1 ZINC000003861768   -0.6000
22     H22     0.8168    1.8648    0.0043 H        1 ZINC000003861768    0.4200
23     H23    -0.8631    1.8419    0.0162 H        1 ZINC000003861768    0.4200
24     H24     3.0775   -7.2161    0.7614 H        1 ZINC000003861768    0.0700
25     H25     3.4206   -5.4696    0.7746 H        1 ZINC000003861768    0.0600
26     H26     3.6511   -6.4382    2.9458 H        1 ZINC000003861768    0.3900
27     H27     0.5841   -7.9576   -0.9825 H        1 ZINC000003861768    0.3900
28     H28     0.1554   -5.1793   -3.1809 H        1 ZINC000003861768    0.3900
29     H29     2.1554   -2.4800   -0.0214 H        1 ZINC000003861768    0.2100
@<TRIPOS>BOND
1     1     2     1
2     1     22    1
3     1     23    1
4     2     21    1
5     2     3     2
6     3     4     1
7     4     5     2
8     4     6     am
9     6     7     1
10    6     20    1
11    7     8     1
12    7     17    1
13    7     9     1
14    9     10    1
15    10    11    1
16    10    12    1
17    10    14    1
18    12    13    1
19    12    24    1
20    12    25    1
21    13    26    1
22    14    15    1
23    14    16    1
24    14    17    1
25    16    27    1
26    17    18    1
27    17    19    1
28    19    28    1
29    20    21    2
30    20    29    1
@<TRIPOS>SUBSTRUCTURE
1   ZINC000003861768 1     RESIDUE    1   A     ZIN   1
