@<TRIPOS>MOLECULE
ZINC000008214692
74    76    1     0     0
SMALL
USER_CHARGES
@<TRIPOS>ATOM
1      N1      0.6601    1.4010    1.1289 N.4      1 ZINC000008214692   -0.6400
2      H2      0.7813    0.4450    1.4281 H        1 ZINC000008214692    0.4700
3      H3      1.5630    1.8426    1.0403 H        1 ZINC000008214692    0.4100
4      H4      0.1888    1.4171    0.2369 H        1 ZINC000008214692    0.4400
5      C5     -0.1445    2.1263    2.1211 C.3      1 ZINC000008214692   -0.0100
6      C6     -0.3282    3.5759    1.6675 C.3      1 ZINC000008214692    0.0700
7      H7      0.6476    4.0265    1.4861 H        1 ZINC000008214692    0.0600
8      O8     -1.0976    3.6047    0.4636 O.3      1 ZINC000008214692   -0.3600
9      C9     -1.3076    4.9163   -0.0634 C.3      1 ZINC000008214692    0.2300
10     H10    -1.8823    4.8491   -0.9872 H        1 ZINC000008214692    0.1700
11     O11    -0.0452    5.5301   -0.3311 O.3      1 ZINC000008214692   -0.4000
12     C12     0.6598    4.9531   -1.4321 C.3      1 ZINC000008214692    0.0700
13     H13     0.4026    3.8972   -1.5150 H        1 ZINC000008214692    0.1200
14     C14     2.1660    5.0948   -1.2037 C.3      1 ZINC000008214692    0.0400
15     H15     2.4232    6.1507   -1.1208 H        1 ZINC000008214692    0.1800
16     N16     2.5408    4.4007    0.0355 N.4      1 ZINC000008214692   -0.6400
17     H17     2.3027    3.4232   -0.0412 H        1 ZINC000008214692    0.4200
18     H18     3.5341    4.4941    0.1861 H        1 ZINC000008214692    0.4700
19     H19     2.0430    4.8081    0.8129 H        1 ZINC000008214692    0.4500
20     C20     2.9208    4.4770   -2.3825 C.3      1 ZINC000008214692   -0.1800
21     C21     2.5305    5.1999   -3.6732 C.3      1 ZINC000008214692    0.0100
22     H22     2.7877    6.2559   -3.5903 H        1 ZINC000008214692    0.1800
23     N23     3.2552    4.6068   -4.8050 N.4      1 ZINC000008214692   -0.6400
24     H24     2.9263    3.6654   -4.9589 H        1 ZINC000008214692    0.4400
25     H25     3.0943    5.1591   -5.6340 H        1 ZINC000008214692    0.4400
26     H26     4.2429    4.5886   -4.5996 H        1 ZINC000008214692    0.4600
27     C27     1.0243    5.0583   -3.9016 C.3      1 ZINC000008214692    0.0300
28     H28     0.7671    4.0023   -3.9845 H        1 ZINC000008214692    0.1200
29     O29     0.6597    5.7335   -5.1071 O.3      1 ZINC000008214692   -0.3700
30     C30     0.6415    4.8919   -6.2619 C.3      1 ZINC000008214692    0.2100
31     H31     1.5754    4.3328   -6.3189 H        1 ZINC000008214692    0.1100
32     O32    -0.4550    3.9801   -6.1699 O.3      1 ZINC000008214692   -0.3400
33     C33    -1.7321    4.6123   -6.0635 C.3      1 ZINC000008214692    0.0700
34     H34    -1.7493    5.2506   -5.1800 H        1 ZINC000008214692    0.0900
35     C35    -2.8215    3.5447   -5.9429 C.3      1 ZINC000008214692    0.0700
36     O36    -2.6677    2.8448   -4.7066 O.3      1 ZINC000008214692   -0.5700
37     C37    -1.9852    5.4616   -7.3119 C.3      1 ZINC000008214692    0.0500
38     H38    -2.0084    4.8183   -8.1915 H        1 ZINC000008214692    0.1100
39     O39    -3.2366    6.1393   -7.1828 O.3      1 ZINC000008214692   -0.5500
40     C40    -0.8581    6.4885   -7.4583 C.3      1 ZINC000008214692    0.0500
41     H41    -0.8660    7.1632   -6.6023 H        1 ZINC000008214692    0.1600
42     N42    -1.0533    7.2595   -8.6934 N.4      1 ZINC000008214692   -0.6300
43     H43    -1.9406    7.7382   -8.6545 H        1 ZINC000008214692    0.4600
44     H44    -0.3104    7.9356   -8.7888 H        1 ZINC000008214692    0.4500
45     H45    -1.0429    6.6343   -9.4854 H        1 ZINC000008214692    0.4400
46     C46     0.4841    5.7524   -7.5183 C.3      1 ZINC000008214692    0.0700
47     H47     0.5109    5.1150   -8.4020 H        1 ZINC000008214692    0.1300
48     O48     1.5481    6.7041   -7.5835 O.3      1 ZINC000008214692   -0.5400
49     C49     0.2694    5.6760   -2.7228 C.3      1 ZINC000008214692    0.1000
50     H50     0.5266    6.7320   -2.6399 H        1 ZINC000008214692    0.1100
51     O51    -1.1374    5.5437   -2.9361 O.3      1 ZINC000008214692   -0.5400
52     C52    -2.0784    5.7575    0.9574 C.3      1 ZINC000008214692    0.0200
53     H53    -3.0577    5.3118    1.1315 H        1 ZINC000008214692    0.1800
54     N54    -2.2451    7.1231    0.4423 N.4      1 ZINC000008214692   -0.6300
55     H55    -2.7585    7.0948   -0.4258 H        1 ZINC000008214692    0.4500
56     H56    -2.7531    7.6768    1.1157 H        1 ZINC000008214692    0.4600
57     H57    -1.3381    7.5357    0.2834 H        1 ZINC000008214692    0.4400
58     C58    -1.2930    5.7971    2.2719 C.3      1 ZINC000008214692   -0.1900
59     C59    -1.0594    4.3633    2.7579 C.3      1 ZINC000008214692    0.0900
60     H60    -2.0181    3.8893    2.9684 H        1 ZINC000008214692    0.1100
61     O61    -0.2663    4.3853    3.9464 O.3      1 ZINC000008214692   -0.5500
62     H62    -1.1199    1.6492    2.2169 H        1 ZINC000008214692    0.1700
63     H63     0.3647    2.1089    3.0847 H        1 ZINC000008214692    0.1800
64     H64     3.9939    4.5779   -2.2198 H        1 ZINC000008214692    0.1500
65     H65     2.6636    3.4211   -2.4654 H        1 ZINC000008214692    0.1300
66     H66    -3.8016    4.0209   -5.9715 H        1 ZINC000008214692    0.0800
67     H67    -2.7347    2.8419   -6.7715 H        1 ZINC000008214692    0.0800
68     H68    -3.3261    2.1514   -4.5627 H        1 ZINC000008214692    0.4100
69     H69    -3.9953    5.5484   -7.0816 H        1 ZINC000008214692    0.4200
70     H70     2.4290    6.3071   -7.6238 H        1 ZINC000008214692    0.4100
71     H71    -1.4748    6.0712   -3.6729 H        1 ZINC000008214692    0.4100
72     H72    -0.3334    6.2875    2.1086 H        1 ZINC000008214692    0.1100
73     H73    -1.8626    6.3476    3.0205 H        1 ZINC000008214692    0.1300
74     H74    -0.6684    4.8724    4.6787 H        1 ZINC000008214692    0.4300
@<TRIPOS>BOND
1     1     2     1
2     1     3     1
3     1     4     1
4     1     5     1
5     5     6     1
6     5     62    1
7     5     63    1
8     6     7     1
9     6     59    1
10    6     8     1
11    8     9     1
12    9     10    1
13    9     11    1
14    9     52    1
15    11    12    1
16    12    13    1
17    12    49    1
18    12    14    1
19    14    15    1
20    14    16    1
21    14    20    1
22    16    17    1
23    16    18    1
24    16    19    1
25    20    21    1
26    20    64    1
27    20    65    1
28    21    22    1
29    21    23    1
30    21    27    1
31    23    24    1
32    23    25    1
33    23    26    1
34    27    28    1
35    27    29    1
36    27    49    1
37    29    30    1
38    30    31    1
39    30    46    1
40    30    32    1
41    32    33    1
42    33    34    1
43    33    35    1
44    33    37    1
45    35    36    1
46    35    66    1
47    35    67    1
48    36    68    1
49    37    38    1
50    37    39    1
51    37    40    1
52    39    69    1
53    40    41    1
54    40    42    1
55    40    46    1
56    42    43    1
57    42    44    1
58    42    45    1
59    46    47    1
60    46    48    1
61    48    70    1
62    49    50    1
63    49    51    1
64    51    71    1
65    52    53    1
66    52    54    1
67    52    58    1
68    54    55    1
69    54    56    1
70    54    57    1
71    58    59    1
72    58    72    1
73    58    73    1
74    59    60    1
75    59    61    1
76    61    74    1
@<TRIPOS>SUBSTRUCTURE
1   ZINC000008214692 1     RESIDUE    1   A     ZIN   1
