@<TRIPOS>MOLECULE
ZINC000000057534
43    44    1     0     0
SMALL
USER_CHARGES
@<TRIPOS>ATOM
1      C1     -0.0184    1.5028    0.0103 C.3      1 ZINC000000057534   -0.1300
2      C2      0.0021   -0.0041    0.0020 C.ar     1 ZINC000000057534   -0.0600
3      C3      0.0057   -0.6886   -1.1989 C.ar     1 ZINC000000057534   -0.1100
4      C4      0.0245   -2.0709   -1.2065 C.ar     1 ZINC000000057534   -0.0300
5      C5      0.0279   -2.8172   -2.5157 C.3      1 ZINC000000057534   -0.0400
6      C6      1.2679   -2.4263   -3.3223 C.3      1 ZINC000000057534   -0.1400
7      C7      0.0498   -4.3228   -2.2444 C.3      1 ZINC000000057534   -0.1500
8      C8     -1.2303   -2.4602   -3.3096 C.3      1 ZINC000000057534   -0.1400
9      C9      0.0405   -2.7685   -0.0132 C.ar     1 ZINC000000057534   -0.1200
10     C10     0.0373   -2.0839    1.1877 C.ar     1 ZINC000000057534   -0.0600
11     C11     0.0543   -2.8444    2.4886 C.3      1 ZINC000000057534   -0.1300
12     C12     0.0229   -0.7016    1.1953 C.ar     1 ZINC000000057534   -0.1300
13     C13     0.0194    0.0447    2.5045 C.3      1 ZINC000000057534   -0.0700
14     C14     1.4389    0.3084    2.9362 C.cat    1 ZINC000000057534    0.5200
15     N15     2.1162   -0.5328    3.6818 N.pl3    1 ZINC000000057534   -0.6300
16     H16     1.7826   -1.3794    4.0179 H        1 ZINC000000057534    0.4600
17     C17     3.4621    0.0101    3.9270 C.3      1 ZINC000000057534    0.0600
18     C18     3.4431    1.3538    3.1690 C.3      1 ZINC000000057534    0.0600
19     N19     2.0907    1.3934    2.5897 N.pl3    1 ZINC000000057534   -0.6300
20     H20     1.0042    1.8801    0.0026 H        1 ZINC000000057534    0.0700
21     H21    -0.5455    1.8639   -0.8728 H        1 ZINC000000057534    0.0800
22     H22    -0.5286    1.8543    0.9071 H        1 ZINC000000057534    0.0700
23     H23    -0.0064   -0.1436   -2.1312 H        1 ZINC000000057534    0.1300
24     H24     2.1643   -2.6806   -2.7567 H        1 ZINC000000057534    0.0600
25     H25     1.2704   -2.9661   -4.2693 H        1 ZINC000000057534    0.0700
26     H26     1.2523   -1.3537   -3.5156 H        1 ZINC000000057534    0.0600
27     H27    -0.8336   -4.6013   -1.6698 H        1 ZINC000000057534    0.0600
28     H28     0.0523   -4.8626   -3.1914 H        1 ZINC000000057534    0.0700
29     H29     0.9462   -4.5771   -1.6789 H        1 ZINC000000057534    0.0600
30     H30    -1.2459   -1.3876   -3.5029 H        1 ZINC000000057534    0.0600
31     H31    -1.2278   -3.0000   -4.2565 H        1 ZINC000000057534    0.0700
32     H32    -2.1137   -2.7387   -2.7350 H        1 ZINC000000057534    0.0600
33     H33     0.0551   -3.8483   -0.0191 H        1 ZINC000000057534    0.1400
34     H34     1.0859   -3.0138    2.7970 H        1 ZINC000000057534    0.0700
35     H35    -0.4636   -2.2665    3.2541 H        1 ZINC000000057534    0.0700
36     H36    -0.4472   -3.8030    2.3557 H        1 ZINC000000057534    0.0900
37     H37    -0.5048    0.9924    2.3811 H        1 ZINC000000057534    0.1300
38     H38    -0.4857   -0.5538    3.2626 H        1 ZINC000000057534    0.1300
39     H39     3.6236    0.1717    4.9927 H        1 ZINC000000057534    0.1300
40     H40     4.2247   -0.6521    3.5171 H        1 ZINC000000057534    0.1300
41     H41     3.5951    2.1857    3.8567 H        1 ZINC000000057534    0.1300
42     H42     4.1962    1.3619    2.3811 H        1 ZINC000000057534    0.1300
43     H43     1.7353    2.1109    2.0421 H        1 ZINC000000057534    0.4600
@<TRIPOS>BOND
1     1     2     1
2     1     20    1
3     1     21    1
4     1     22    1
5     2     12    ar
6     2     3     ar
7     3     4     ar
8     3     23    1
9     4     5     1
10    4     9     ar
11    5     6     1
12    5     7     1
13    5     8     1
14    6     24    1
15    6     25    1
16    6     26    1
17    7     27    1
18    7     28    1
19    7     29    1
20    8     30    1
21    8     31    1
22    8     32    1
23    9     10    ar
24    9     33    1
25    10    11    1
26    10    12    ar
27    11    34    1
28    11    35    1
29    11    36    1
30    12    13    1
31    13    14    1
32    13    37    1
33    13    38    1
34    14    19    ar
35    14    15    ar
36    15    16    1
37    15    17    1
38    17    18    1
39    17    39    1
40    17    40    1
41    18    19    1
42    18    41    1
43    18    42    1
44    19    43    1
@<TRIPOS>SUBSTRUCTURE
1   ZINC000000057534 1     RESIDUE    1   A     ZIN   1
