@<TRIPOS>MOLECULE
ZINC000000001798
26    27    1     0     0
SMALL
USER_CHARGES
@<TRIPOS>ATOM
1      C1     -0.8150    1.2367    0.7553 C.3      1 ZINC000000001798    0.0100
2      N2     -0.4517   -0.1541    0.4529 N.3      1 ZINC000000001798   -0.5200
3      C3     -1.5112   -1.0863    0.8939 C.3      1 ZINC000000001798    0.0400
4      C4     -0.7551   -2.3641    1.3356 C.3      1 ZINC000000001798   -0.1300
5      C5      0.5155   -1.7647    1.9938 C.3      1 ZINC000000001798   -0.1400
6      C6      0.8094   -0.5277    1.1191 C.3      1 ZINC000000001798    0.1100
7      H7      1.5648   -0.7725    0.3725 H        1 ZINC000000001798    0.1000
8      C8      1.2926    0.6083    1.9835 C.ar     1 ZINC000000001798   -0.1500
9      C9      0.5636    1.0044    3.0941 C.ar     1 ZINC000000001798   -0.0700
10     C10     1.0467    2.0541    3.8607 C.ar     1 ZINC000000001798   -0.1700
11     C11     2.2303    2.6662    3.4947 C.ar     1 ZINC000000001798    0.1000
12     N12     2.8977    2.2627    2.4311 N.ar     1 ZINC000000001798   -0.4800
13     C13     2.4711    1.2647    1.6823 C.ar     1 ZINC000000001798    0.1100
14     H14     0.0348    1.8873    0.5486 H        1 ZINC000000001798    0.0700
15     H15    -1.6601    1.5347    0.1348 H        1 ZINC000000001798    0.0700
16     H16    -1.0891    1.3202    1.8070 H        1 ZINC000000001798    0.0400
17     H17    -2.0638   -0.6632    1.7328 H        1 ZINC000000001798    0.0500
18     H18    -2.1865   -1.3112    0.0684 H        1 ZINC000000001798    0.0800
19     H19    -1.3388   -2.9325    2.0598 H        1 ZINC000000001798    0.0800
20     H20    -0.4952   -2.9810    0.4754 H        1 ZINC000000001798    0.0800
21     H21     0.3135   -1.4694    3.0234 H        1 ZINC000000001798    0.0700
22     H22     1.3428   -2.4729    1.9501 H        1 ZINC000000001798    0.0800
23     H23    -0.3589    0.5074    3.3560 H        1 ZINC000000001798    0.1300
24     H24     0.5046    2.3893    4.7326 H        1 ZINC000000001798    0.1400
25     H25     2.6131    3.4847    4.0862 H        1 ZINC000000001798    0.1600
26     H26     3.0447    0.9624    0.8186 H        1 ZINC000000001798    0.1600
@<TRIPOS>BOND
1     1     2     1
2     1     14    1
3     1     15    1
4     1     16    1
5     2     6     1
6     2     3     1
7     3     4     1
8     3     17    1
9     3     18    1
10    4     5     1
11    4     19    1
12    4     20    1
13    5     6     1
14    5     21    1
15    5     22    1
16    6     7     1
17    6     8     1
18    8     13    ar
19    8     9     ar
20    9     10    ar
21    9     23    1
22    10    11    ar
23    10    24    1
24    11    12    ar
25    11    25    1
26    12    13    ar
27    13    26    1
@<TRIPOS>SUBSTRUCTURE
1   ZINC000000001798 1     RESIDUE    1   A     ZIN   1
