@<TRIPOS>MOLECULE
ZINC000033965961
64    64    1     0     0
SMALL
USER_CHARGES
@<TRIPOS>ATOM
1      O1     -2.9312    2.8822   -1.5571 O.co2    1 ZINC000033965961   -0.6900
2      C2     -1.8683    3.2116   -1.0587 C.2      1 ZINC000033965961    0.4800
3      O3     -1.2547    4.1653   -1.5062 O.co2    1 ZINC000033965961   -0.7000
4      C4     -1.3161    2.4435    0.1144 C.3      1 ZINC000033965961   -0.0300
5      N5     -2.2920    1.4314    0.5402 N.3      1 ZINC000033965961   -0.5000
6      C6     -3.5627    2.0567    0.9303 C.3      1 ZINC000033965961    0.0200
7      C7     -3.3490    2.9066    2.1845 C.3      1 ZINC000033965961   -0.0200
8      N8     -4.6198    3.5319    2.5746 N.4      1 ZINC000033965961   -0.3300
9      H9     -4.9989    4.0409    1.7902 H        1 ZINC000033965961    0.4000
10     C10    -5.5705    2.4916    2.9890 C.3      1 ZINC000033965961   -0.0800
11     C11    -4.9976    1.7216    4.1509 C.2      1 ZINC000033965961    0.5000
12     O12    -3.9302    2.0553    4.6364 O.co2    1 ZINC000033965961   -0.6700
13     O13    -5.6015    0.7649    4.6053 O.co2    1 ZINC000033965961   -0.6700
14     C14    -4.3877    4.4566    3.6922 C.3      1 ZINC000033965961   -0.0900
15     C15    -5.6517    5.2256    3.9787 C.2      1 ZINC000033965961    0.5000
16     O16    -6.6543    5.0191    3.3163 O.co2    1 ZINC000033965961   -0.6900
17     O17    -5.6717    6.0543    4.8727 O.co2    1 ZINC000033965961   -0.6700
18     C18    -2.5006    0.4264   -0.5106 C.3      1 ZINC000033965961    0.0300
19     C19    -1.2803   -0.4936   -0.5859 C.3      1 ZINC000033965961   -0.0200
20     N20    -1.4499   -1.4421   -1.6948 N.4      1 ZINC000033965961   -0.3200
21     H21    -2.3260   -1.9311   -1.5881 H        1 ZINC000033965961    0.4000
22     C22    -1.4491   -0.7111   -2.9690 C.3      1 ZINC000033965961   -0.0900
23     C23    -0.1462    0.0305   -3.1218 C.2      1 ZINC000033965961    0.5000
24     O24     0.7273   -0.0918   -2.2801 O.co2    1 ZINC000033965961   -0.6700
25     O25     0.0345    0.7528   -4.0873 O.co2    1 ZINC000033965961   -0.6600
26     C26    -0.3447   -2.4098   -1.6847 C.3      1 ZINC000033965961   -0.0500
27     H27     0.6056   -1.8759   -1.6826 H        1 ZINC000033965961    0.1800
28     C28    -0.4299   -3.2943   -2.9302 C.3      1 ZINC000033965961    0.0600
29     O29    -1.6391   -4.0549   -2.8924 O.3      1 ZINC000033965961   -0.3700
30     C30    -1.8175   -4.9191   -4.0164 C.3      1 ZINC000033965961    0.1000
31     C31    -3.1172   -5.6682   -3.8728 C.ar     1 ZINC000033965961   -0.0800
32     C32    -3.1447   -6.8856   -3.2185 C.ar     1 ZINC000033965961   -0.0900
33     C33    -4.3370   -7.5727   -3.0867 C.ar     1 ZINC000033965961   -0.1300
34     C34    -5.5018   -7.0422   -3.6089 C.ar     1 ZINC000033965961   -0.1200
35     C35    -5.4744   -5.8244   -4.2624 C.ar     1 ZINC000033965961   -0.1300
36     C36    -4.2830   -5.1353   -4.3904 C.ar     1 ZINC000033965961   -0.1000
37     C37    -0.4408   -3.2693   -0.4506 C.2      1 ZINC000033965961    0.5100
38     O38    -1.4370   -3.2201    0.2505 O.co2    1 ZINC000033965961   -0.6700
39     O39     0.4778   -4.0139   -0.1533 O.co2    1 ZINC000033965961   -0.6700
40     H40    -0.3875    1.9528   -0.1772 H        1 ZINC000033965961    0.0800
41     H41    -1.1211    3.1297    0.9386 H        1 ZINC000033965961    0.0700
42     H42    -3.9202    2.6903    0.1186 H        1 ZINC000033965961    0.0900
43     H43    -4.3004    1.2816    1.1380 H        1 ZINC000033965961    0.0700
44     H44    -2.9916    2.2731    2.9962 H        1 ZINC000033965961    0.1600
45     H45    -2.6114    3.6818    1.9767 H        1 ZINC000033965961    0.1000
46     H46    -6.5098    2.9564    3.2889 H        1 ZINC000033965961    0.1400
47     H47    -5.7511    1.8119    2.1563 H        1 ZINC000033965961    0.1100
48     H48    -4.0981    3.8908    4.5777 H        1 ZINC000033965961    0.1700
49     H49    -3.5910    5.1522    3.4289 H        1 ZINC000033965961    0.1000
50     H50    -3.3868   -0.1640   -0.2780 H        1 ZINC000033965961    0.0700
51     H51    -2.6384    0.9263   -1.4694 H        1 ZINC000033965961    0.0900
52     H52    -0.3844    0.1043   -0.7530 H        1 ZINC000033965961    0.1500
53     H53    -1.1812   -1.0430    0.3502 H        1 ZINC000033965961    0.1300
54     H54    -1.5648   -1.4160   -3.7923 H        1 ZINC000033965961    0.1100
55     H55    -2.2753   -0.0002   -2.9805 H        1 ZINC000033965961    0.1200
56     H56    -0.4226   -2.6677   -3.8220 H        1 ZINC000033965961    0.0600
57     H57     0.4243   -3.9709   -2.9545 H        1 ZINC000033965961    0.0800
58     H58    -1.8389   -4.3262   -4.9308 H        1 ZINC000033965961    0.0600
59     H59    -0.9920   -5.6294   -4.0632 H        1 ZINC000033965961    0.0600
60     H60    -2.2347   -7.3000   -2.8105 H        1 ZINC000033965961    0.1200
61     H61    -4.3583   -8.5241   -2.5762 H        1 ZINC000033965961    0.1200
62     H62    -6.4331   -7.5794   -3.5066 H        1 ZINC000033965961    0.1200
63     H63    -6.3844   -5.4101   -4.6707 H        1 ZINC000033965961    0.1200
64     H64    -4.2616   -4.1838   -4.9010 H        1 ZINC000033965961    0.1200
@<TRIPOS>BOND
1     1     2     ar
2     2     3     ar
3     2     4     1
4     4     5     1
5     4     40    1
6     4     41    1
7     5     6     1
8     5     18    1
9     6     7     1
10    6     42    1
11    6     43    1
12    7     8     1
13    7     44    1
14    7     45    1
15    8     9     1
16    8     10    1
17    8     14    1
18    10    11    1
19    10    46    1
20    10    47    1
21    11    12    ar
22    11    13    ar
23    14    15    1
24    14    48    1
25    14    49    1
26    15    16    ar
27    15    17    ar
28    18    19    1
29    18    50    1
30    18    51    1
31    19    20    1
32    19    52    1
33    19    53    1
34    20    21    1
35    20    22    1
36    20    26    1
37    22    23    1
38    22    54    1
39    22    55    1
40    23    24    ar
41    23    25    ar
42    26    27    1
43    26    28    1
44    26    37    1
45    28    29    1
46    28    56    1
47    28    57    1
48    29    30    1
49    30    31    1
50    30    58    1
51    30    59    1
52    31    36    ar
53    31    32    ar
54    32    33    ar
55    32    60    1
56    33    34    ar
57    33    61    1
58    34    35    ar
59    34    62    1
60    35    36    ar
61    35    63    1
62    36    64    1
63    37    38    ar
64    37    39    ar
@<TRIPOS>SUBSTRUCTURE
1   ZINC000033965961 1     RESIDUE    1   A     ZIN   1
