@<TRIPOS>MOLECULE
ZINC000001530814
49    50    1     0     0
SMALL
USER_CHARGES
@<TRIPOS>ATOM
1      C1      1.9441   -2.8752    3.7767 C.3      1 ZINC000001530814   -0.1500
2      C2      1.8065   -3.8807    2.6317 C.3      1 ZINC000001530814   -0.1200
3      C3      2.0022   -3.1618    1.2954 C.3      1 ZINC000001530814   -0.1100
4      C4      1.8646   -4.1672    0.1504 C.3      1 ZINC000001530814    0.0500
5      N5      2.0526   -3.4769   -1.1326 N.3      1 ZINC000001530814   -0.5100
6      C6      3.4582   -3.0984   -1.3256 C.3      1 ZINC000001530814    0.0600
7      C7      3.5915   -2.2576   -2.5973 C.3      1 ZINC000001530814   -0.1200
8      C8      3.0932   -3.0705   -3.7954 C.3      1 ZINC000001530814   -0.1200
9      C9      1.6426   -3.4933   -3.5476 C.3      1 ZINC000001530814   -0.1100
10     C10     1.5658   -4.2983   -2.2483 C.3      1 ZINC000001530814    0.0700
11     H11     2.1834   -5.1920   -2.3378 H        1 ZINC000001530814    0.0600
12     C12     0.1364   -4.6996   -1.9899 C.2      1 ZINC000001530814    0.5200
13     O13    -0.5955   -3.9649   -1.3609 O.2      1 ZINC000001530814   -0.4900
14     N14    -0.3287   -5.8748   -2.4579 N.am     1 ZINC000001530814   -0.6800
15     C15    -1.6745   -6.2148   -2.2813 C.ar     1 ZINC000001530814    0.1300
16     C16    -2.0147   -7.4124   -1.6661 C.ar     1 ZINC000001530814   -0.0900
17     C17    -0.9346   -8.3478   -1.1871 C.3      1 ZINC000001530814   -0.1100
18     C18    -3.3440   -7.7451   -1.4933 C.ar     1 ZINC000001530814   -0.1200
19     C19    -4.3357   -6.8874   -1.9326 C.ar     1 ZINC000001530814   -0.1100
20     C20    -4.0002   -5.6943   -2.5460 C.ar     1 ZINC000001530814   -0.1200
21     C21    -2.6728   -5.3527   -2.7158 C.ar     1 ZINC000001530814   -0.0700
22     C22    -2.3081   -4.0523   -3.3844 C.3      1 ZINC000001530814   -0.1100
23     H23     2.9365   -2.4255    3.7481 H        1 ZINC000001530814    0.0500
24     H24     1.1890   -2.0965    3.6691 H        1 ZINC000001530814    0.0600
25     H25     1.8046   -3.3874    4.7288 H        1 ZINC000001530814    0.0500
26     H26     2.5615   -4.6594    2.7394 H        1 ZINC000001530814    0.0600
27     H27     0.8140   -4.3304    2.6604 H        1 ZINC000001530814    0.0600
28     H28     1.2472   -2.3830    1.1878 H        1 ZINC000001530814    0.0700
29     H29     2.9947   -2.7120    1.2668 H        1 ZINC000001530814    0.0600
30     H30     2.6197   -4.9460    0.2580 H        1 ZINC000001530814    0.0300
31     H31     0.8722   -4.6169    0.1791 H        1 ZINC000001530814    0.0800
32     H32     3.7988   -2.5173   -0.4686 H        1 ZINC000001530814    0.0800
33     H33     4.0669   -3.9977   -1.4194 H        1 ZINC000001530814    0.0300
34     H34     2.9939   -1.3513   -2.4987 H        1 ZINC000001530814    0.0700
35     H35     4.6372   -1.9899   -2.7487 H        1 ZINC000001530814    0.0700
36     H36     3.1458   -2.4602   -4.6970 H        1 ZINC000001530814    0.0700
37     H37     3.7152   -3.9572   -3.9179 H        1 ZINC000001530814    0.0600
38     H38     1.0143   -2.6065   -3.4639 H        1 ZINC000001530814    0.0800
39     H39     1.2959   -4.1085   -4.3779 H        1 ZINC000001530814    0.0700
40     H40     0.2694   -6.4849   -2.9171 H        1 ZINC000001530814    0.4100
41     H41    -0.7227   -8.1504   -0.1363 H        1 ZINC000001530814    0.0700
42     H42    -1.2691   -9.3787   -1.3028 H        1 ZINC000001530814    0.0700
43     H43    -0.0307   -8.1909   -1.7757 H        1 ZINC000001530814    0.0600
44     H44    -3.6092   -8.6764   -1.0150 H        1 ZINC000001530814    0.1300
45     H45    -5.3744   -7.1500   -1.7967 H        1 ZINC000001530814    0.1200
46     H46    -4.7771   -5.0268   -2.8886 H        1 ZINC000001530814    0.1300
47     H47    -2.3430   -3.2452   -2.6526 H        1 ZINC000001530814    0.0800
48     H48    -1.3019   -4.1255   -3.7969 H        1 ZINC000001530814    0.0600
49     H49    -3.0158   -3.8456   -4.1872 H        1 ZINC000001530814    0.0600
@<TRIPOS>BOND
1     1     2     1
2     1     23    1
3     1     24    1
4     1     25    1
5     2     3     1
6     2     26    1
7     2     27    1
8     3     4     1
9     3     28    1
10    3     29    1
11    4     5     1
12    4     30    1
13    4     31    1
14    5     10    1
15    5     6     1
16    6     7     1
17    6     32    1
18    6     33    1
19    7     8     1
20    7     34    1
21    7     35    1
22    8     9     1
23    8     36    1
24    8     37    1
25    9     10    1
26    9     38    1
27    9     39    1
28    10    11    1
29    10    12    1
30    12    13    2
31    12    14    am
32    14    15    1
33    14    40    1
34    15    21    ar
35    15    16    ar
36    16    17    1
37    16    18    ar
38    17    41    1
39    17    42    1
40    17    43    1
41    18    19    ar
42    18    44    1
43    19    20    ar
44    19    45    1
45    20    21    ar
46    20    46    1
47    21    22    1
48    22    47    1
49    22    48    1
50    22    49    1
@<TRIPOS>SUBSTRUCTURE
1   ZINC000001530814 1     RESIDUE    1   A     ZIN   1
