@<TRIPOS>MOLECULE
ZINC000003645145
22    21    1     0     0
SMALL
USER_CHARGES
@<TRIPOS>ATOM
1      C1     -0.0187    1.5258    0.0104 C.3      1 ZINC000003645145   -0.1500
2      C2      0.0021   -0.0041    0.0020 C.3      1 ZINC000003645145   -0.1000
3      C3      0.7421   -0.5109    1.2415 C.3      1 ZINC000003645145   -0.1600
4      C4     -1.4333   -0.5336    0.0129 C.3      1 ZINC000003645145   -0.1200
5      C5     -1.4157   -2.0577   -0.1212 C.3      1 ZINC000003645145   -0.0500
6      H6     -0.7891   -2.4841    0.6622 H        1 ZINC000003645145    0.1300
7      N7     -0.8750   -2.4273   -1.4361 N.4      1 ZINC000003645145   -0.6100
8      H8     -1.4550   -2.0326   -2.1613 H        1 ZINC000003645145    0.4300
9      H9      0.0647   -2.0709   -1.5257 H        1 ZINC000003645145    0.4100
10     H10    -0.8634   -3.4324   -1.5245 H        1 ZINC000003645145    0.4300
11     C11    -2.8192   -2.5900    0.0125 C.2      1 ZINC000003645145    0.4900
12     O12    -3.3892   -3.0569   -0.9588 O.co2    1 ZINC000003645145   -0.6700
13     O13    -3.3846   -2.5537    1.0921 O.co2    1 ZINC000003645145   -0.6400
14     H14     1.0039    1.9031    0.0027 H        1 ZINC000003645145    0.0600
15     H15    -0.5459    1.8868   -0.8726 H        1 ZINC000003645145    0.0600
16     H16    -0.5289    1.8773    0.9072 H        1 ZINC000003645145    0.0600
17     H17     0.5123   -0.3556   -0.8948 H        1 ZINC000003645145    0.0600
18     H18     0.7568   -1.6008    1.2356 H        1 ZINC000003645145    0.0500
19     H19     1.7647   -0.1336    1.2338 H        1 ZINC000003645145    0.0600
20     H20     0.2319   -0.1594    2.1383 H        1 ZINC000003645145    0.0700
21     H21    -1.9156   -0.2570    0.9504 H        1 ZINC000003645145    0.1100
22     H22    -1.9862   -0.1019   -0.8214 H        1 ZINC000003645145    0.0800
@<TRIPOS>BOND
1     1     2     1
2     1     14    1
3     1     15    1
4     1     16    1
5     2     3     1
6     2     4     1
7     2     17    1
8     3     18    1
9     3     19    1
10    3     20    1
11    4     5     1
12    4     21    1
13    4     22    1
14    5     6     1
15    5     7     1
16    5     11    1
17    7     8     1
18    7     9     1
19    7     10    1
20    11    12    ar
21    11    13    ar
@<TRIPOS>SUBSTRUCTURE
1   ZINC000003645145 1     RESIDUE    1   A     ZIN   1
