@<TRIPOS>MOLECULE
ZINC000001530752
57    58    1     0     0
SMALL
USER_CHARGES
@<TRIPOS>ATOM
1      C1     -1.3393   -0.9465    0.0937 C.3      1 ZINC000001530752   -0.1900
2      C2     -0.0615   -0.1096    0.0057 C.3      1 ZINC000001530752    0.0500
3      N3      0.7423   -0.5619   -1.1377 N.3      1 ZINC000001530752   -0.5400
4      C4      1.0055   -2.0050   -1.0581 C.3      1 ZINC000001530752    0.0400
5      C5      1.8971   -2.2949    0.1510 C.3      1 ZINC000001530752   -0.1500
6      C6      0.0922   -0.2147   -2.4084 C.3      1 ZINC000001530752    0.1600
7      C7      0.2750    1.2211   -2.6767 C.1      1 ZINC000001530752   -0.1200
8      C8      0.4208    2.3662   -2.8907 C.1      1 ZINC000001530752   -0.1900
9      C9      0.6035    3.8019   -3.1591 C.3      1 ZINC000001530752    0.1800
10     O10    -0.0390    4.1452   -4.4151 O.3      1 ZINC000001530752   -0.3400
11     C11     0.0360    5.4266   -4.8077 C.2      1 ZINC000001530752    0.4400
12     O12     0.6191    6.2347   -4.1245 O.2      1 ZINC000001530752   -0.4900
13     C13    -0.6073    5.8574   -6.1007 C.3      1 ZINC000001530752    0.2000
14     O14    -0.4974    4.8050   -7.0611 O.3      1 ZINC000001530752   -0.5200
15     C15     0.0886    7.0881   -6.6223 C.ar     1 ZINC000001530752   -0.1100
16     C16    -0.3528    8.3432   -6.2468 C.ar     1 ZINC000001530752   -0.0900
17     C17     0.2855    9.4721   -6.7253 C.ar     1 ZINC000001530752   -0.1200
18     C18     1.3655    9.3460   -7.5788 C.ar     1 ZINC000001530752   -0.1100
19     C19     1.8075    8.0910   -7.9536 C.ar     1 ZINC000001530752   -0.1200
20     C20     1.1719    6.9620   -7.4717 C.ar     1 ZINC000001530752   -0.1100
21     C21    -2.0843    6.1720   -5.8555 C.3      1 ZINC000001530752   -0.0700
22     C22    -2.7374    6.6093   -7.1682 C.3      1 ZINC000001530752   -0.1100
23     C23    -4.2145    6.9239   -6.9230 C.3      1 ZINC000001530752   -0.1200
24     C24    -4.9210    5.6744   -6.3934 C.3      1 ZINC000001530752   -0.1200
25     C25    -4.2679    5.2370   -5.0807 C.3      1 ZINC000001530752   -0.1200
26     C26    -2.7908    4.9224   -5.3259 C.3      1 ZINC000001530752   -0.1100
27     H27    -1.8650   -0.9086   -0.8604 H        1 ZINC000001530752    0.0600
28     H28    -1.0816   -1.9799    0.3257 H        1 ZINC000001530752    0.0600
29     H29    -1.9818   -0.5474    0.8786 H        1 ZINC000001530752    0.0600
30     H30    -0.3232    0.9402   -0.1267 H        1 ZINC000001530752    0.0800
31     H31     0.5140   -0.2276    0.9238 H        1 ZINC000001530752    0.0800
32     H32     0.0625   -2.5410   -0.9510 H        1 ZINC000001530752    0.0400
33     H33     1.5087   -2.3332   -1.9676 H        1 ZINC000001530752    0.0800
34     H34     1.3939   -1.9667    1.0605 H        1 ZINC000001530752    0.0600
35     H35     2.0924   -3.3656    0.2100 H        1 ZINC000001530752    0.0600
36     H36     2.8401   -1.7589    0.0439 H        1 ZINC000001530752    0.0600
37     H37     0.5392   -0.7949   -3.2156 H        1 ZINC000001530752    0.1000
38     H38    -0.9724   -0.4399   -2.3454 H        1 ZINC000001530752    0.0700
39     H39     0.1566    4.3822   -2.3518 H        1 ZINC000001530752    0.1000
40     H40     1.6681    4.0271   -3.2221 H        1 ZINC000001530752    0.0900
41     H41     0.4134    4.5527   -7.2657 H        1 ZINC000001530752    0.3800
42     H42    -1.1966    8.4416   -5.5799 H        1 ZINC000001530752    0.1300
43     H43    -0.0598   10.4526   -6.4325 H        1 ZINC000001530752    0.1300
44     H44     1.8638   10.2281   -7.9532 H        1 ZINC000001530752    0.1300
45     H45     2.6511    7.9925   -8.6207 H        1 ZINC000001530752    0.1300
46     H46     1.5172    5.9814   -7.7645 H        1 ZINC000001530752    0.1200
47     H47    -2.1681    6.9747   -5.1229 H        1 ZINC000001530752    0.0900
48     H48    -2.2341    7.4995   -7.5454 H        1 ZINC000001530752    0.0700
49     H49    -2.6536    5.8066   -7.9008 H        1 ZINC000001530752    0.0800
50     H50    -4.2982    7.7267   -6.1904 H        1 ZINC000001530752    0.0600
51     H51    -4.6797    7.2355   -7.8582 H        1 ZINC000001530752    0.0700
52     H52    -5.9733    5.8985   -6.2187 H        1 ZINC000001530752    0.0600
53     H53    -4.8372    4.8717   -7.1260 H        1 ZINC000001530752    0.0600
54     H54    -4.3517    6.0398   -4.3481 H        1 ZINC000001530752    0.0600
55     H55    -4.7712    4.3469   -4.7034 H        1 ZINC000001530752    0.0600
56     H56    -2.7071    4.1197   -6.0585 H        1 ZINC000001530752    0.0800
57     H57    -2.3256    4.6109   -4.3907 H        1 ZINC000001530752    0.0600
@<TRIPOS>BOND
1     1     2     1
2     1     27    1
3     1     28    1
4     1     29    1
5     2     3     1
6     2     30    1
7     2     31    1
8     3     4     1
9     3     6     1
10    4     5     1
11    4     32    1
12    4     33    1
13    5     34    1
14    5     35    1
15    5     36    1
16    6     7     1
17    6     37    1
18    6     38    1
19    7     8     3
20    8     9     1
21    9     10    1
22    9     39    1
23    9     40    1
24    10    11    1
25    11    12    2
26    11    13    1
27    13    14    1
28    13    15    1
29    13    21    1
30    14    41    1
31    15    20    ar
32    15    16    ar
33    16    17    ar
34    16    42    1
35    17    18    ar
36    17    43    1
37    18    19    ar
38    18    44    1
39    19    20    ar
40    19    45    1
41    20    46    1
42    21    26    1
43    21    22    1
44    21    47    1
45    22    23    1
46    22    48    1
47    22    49    1
48    23    24    1
49    23    50    1
50    23    51    1
51    24    25    1
52    24    52    1
53    24    53    1
54    25    26    1
55    25    54    1
56    25    55    1
57    26    56    1
58    26    57    1
@<TRIPOS>SUBSTRUCTURE
1   ZINC000001530752 1     RESIDUE    1   A     ZIN   1
