@<TRIPOS>MOLECULE
ZINC000000000607
39    40    1     0     0
SMALL
USER_CHARGES
@<TRIPOS>ATOM
1      C1     -0.0537    1.4703    0.2992 C.3      1 ZINC000000000607   -0.0500
2      N2     -0.0294    0.0015    0.2881 N.4      1 ZINC000000000607   -0.3900
3      H3      0.5238   -0.3198   -0.4921 H        1 ZINC000000000607    0.4300
4      C4      0.5606   -0.4880    1.5412 C.3      1 ZINC000000000607   -0.0500
5      C5     -1.4005   -0.5100    0.1598 C.3      1 ZINC000000000607   -0.0100
6      C6     -1.3658   -2.0334    0.0229 C.3      1 ZINC000000000607   -0.1400
7      C7     -2.7938   -2.5661   -0.1108 C.3      1 ZINC000000000607    0.0200
8      H8     -3.3915   -2.2190    0.7321 H        1 ZINC000000000607    0.1100
9      C9     -3.3990   -2.0640   -1.3963 C.ar     1 ZINC000000000607   -0.1000
10     C10    -2.7602   -2.2996   -2.5993 C.ar     1 ZINC000000000607   -0.1200
11     C11    -3.3153   -1.8390   -3.7785 C.ar     1 ZINC000000000607   -0.1200
12     C12    -4.5096   -1.1432   -3.7548 C.ar     1 ZINC000000000607   -0.1100
13     C13    -5.1489   -0.9084   -2.5519 C.ar     1 ZINC000000000607   -0.1100
14     C14    -4.5959   -1.3727   -1.3731 C.ar     1 ZINC000000000607   -0.1100
15     C15    -2.7689   -4.0729   -0.1222 C.ar     1 ZINC000000000607    0.1300
16     C16    -1.7224   -4.7339   -0.7365 C.ar     1 ZINC000000000607   -0.1700
17     C17    -1.7087   -6.1206   -0.7410 C.ar     1 ZINC000000000607   -0.0700
18     C18    -2.7528   -6.7927   -0.1247 C.ar     1 ZINC000000000607   -0.1700
19     C19    -3.7656   -6.0636    0.4697 C.ar     1 ZINC000000000607    0.1100
20     N20    -3.7433   -4.7453    0.4590 N.ar     1 ZINC000000000607   -0.4800
21     H21     0.9636    1.8498    0.3944 H        1 ZINC000000000607    0.1200
22     H22    -0.4915    1.8335   -0.6306 H        1 ZINC000000000607    0.1200
23     H23    -0.6514    1.8174    1.1421 H        1 ZINC000000000607    0.1200
24     H24     0.5786   -1.5778    1.5330 H        1 ZINC000000000607    0.1200
25     H25     1.5779   -0.1084    1.6364 H        1 ZINC000000000607    0.1300
26     H26    -0.0371   -0.1408    2.3841 H        1 ZINC000000000607    0.1200
27     H27    -1.9742   -0.2378    1.0457 H        1 ZINC000000000607    0.1300
28     H28    -1.8688   -0.0763   -0.7238 H        1 ZINC000000000607    0.1300
29     H29    -0.7921   -2.3056   -0.8630 H        1 ZINC000000000607    0.0900
30     H30    -0.8974   -2.4671    0.9064 H        1 ZINC000000000607    0.1000
31     H31    -1.8272   -2.8432   -2.6179 H        1 ZINC000000000607    0.1200
32     H32    -2.8159   -2.0225   -4.7184 H        1 ZINC000000000607    0.1300
33     H33    -4.9429   -0.7827   -4.6760 H        1 ZINC000000000607    0.1300
34     H34    -6.0817   -0.3644   -2.5333 H        1 ZINC000000000607    0.1300
35     H35    -5.0954   -1.1892   -0.4332 H        1 ZINC000000000607    0.1300
36     H36    -0.9255   -4.1777   -1.2075 H        1 ZINC000000000607    0.1300
37     H37    -0.9039   -6.6639   -1.2138 H        1 ZINC000000000607    0.1400
38     H38    -2.7748   -7.8724   -0.1094 H        1 ZINC000000000607    0.1400
39     H39    -4.5828   -6.5797    0.9516 H        1 ZINC000000000607    0.1600
@<TRIPOS>BOND
1     1     2     1
2     1     21    1
3     1     22    1
4     1     23    1
5     2     3     1
6     2     4     1
7     2     5     1
8     4     24    1
9     4     25    1
10    4     26    1
11    5     6     1
12    5     27    1
13    5     28    1
14    6     7     1
15    6     29    1
16    6     30    1
17    7     8     1
18    7     9     1
19    7     15    1
20    9     14    ar
21    9     10    ar
22    10    11    ar
23    10    31    1
24    11    12    ar
25    11    32    1
26    12    13    ar
27    12    33    1
28    13    14    ar
29    13    34    1
30    14    35    1
31    15    20    ar
32    15    16    ar
33    16    17    ar
34    16    36    1
35    17    18    ar
36    17    37    1
37    18    19    ar
38    18    38    1
39    19    20    ar
40    19    39    1
@<TRIPOS>SUBSTRUCTURE
1   ZINC000000000607 1     RESIDUE    1   A     ZIN   1
