@<TRIPOS>MOLECULE
ZINC000000001331
43    45    1     0     0
SMALL
USER_CHARGES
@<TRIPOS>ATOM
1      C1     -0.0154    1.2619    0.2883 C.3      1 ZINC000000001331   -0.0500
2      N2      0.0111   -0.1879    0.0533 N.4      1 ZINC000000001331   -0.3900
3      H3      0.4770   -0.3784   -0.8212 H        1 ZINC000000001331    0.4300
4      C4      0.7351   -0.8482    1.1477 C.3      1 ZINC000000001331   -0.0500
5      C5     -1.3645   -0.7002   -0.0030 C.3      1 ZINC000000001331   -0.0100
6      C6     -2.0806   -0.1063   -1.2177 C.3      1 ZINC000000001331   -0.1200
7      C7     -3.4918   -0.6317   -1.2754 C.2      1 ZINC000000001331   -0.1600
8      C8     -4.5204    0.2206   -1.3621 C.2      1 ZINC000000001331    0.0000
9      C9     -4.2580    1.6614   -1.5859 C.ar     1 ZINC000000001331   -0.0500
10     C10    -3.2682    1.9770   -2.5285 C.ar     1 ZINC000000001331   -0.1200
11     C11    -2.9512    3.2875   -2.8034 C.ar     1 ZINC000000001331   -0.1200
12     C12    -3.6188    4.3016   -2.1405 C.ar     1 ZINC000000001331   -0.1000
13     C13    -4.5920    3.9967   -1.2153 C.ar     1 ZINC000000001331   -0.1200
14     C14    -4.9276    2.6742   -0.9234 C.ar     1 ZINC000000001331   -0.1000
15     C15    -6.0136    2.5039    0.1057 C.3      1 ZINC000000001331    0.1100
16     O16    -6.1721    1.1941    0.5881 O.3      1 ZINC000000001331   -0.3200
17     C17    -6.6755    0.2240   -0.2013 C.ar     1 ZINC000000001331    0.1100
18     C18    -7.9584   -0.2650    0.0005 C.ar     1 ZINC000000001331   -0.1300
19     C19    -8.4568   -1.2436   -0.8403 C.ar     1 ZINC000000001331   -0.0900
20     C20    -7.6907   -1.7388   -1.8805 C.ar     1 ZINC000000001331   -0.1200
21     C21    -6.4069   -1.2651   -2.0840 C.ar     1 ZINC000000001331   -0.0900
22     C22    -5.9045   -0.2908   -1.2389 C.ar     1 ZINC000000001331   -0.1000
23     H23     1.0053    1.6420    0.3301 H        1 ZINC000000001331    0.1300
24     H24    -0.5526    1.7518   -0.5238 H        1 ZINC000000001331    0.1200
25     H25    -0.5187    1.4677    1.2330 H        1 ZINC000000001331    0.1200
26     H26     0.2319   -0.6425    2.0924 H        1 ZINC000000001331    0.1200
27     H27     0.7548   -1.9240    0.9733 H        1 ZINC000000001331    0.1200
28     H28     1.7559   -0.4682    1.1895 H        1 ZINC000000001331    0.1200
29     H29    -1.3445   -1.7866   -0.0884 H        1 ZINC000000001331    0.1300
30     H30    -1.8952   -0.4169    0.9060 H        1 ZINC000000001331    0.1300
31     H31    -2.1006    0.9802   -1.1323 H        1 ZINC000000001331    0.1000
32     H32    -1.5499   -0.3895   -2.1267 H        1 ZINC000000001331    0.1000
33     H33    -3.6733   -1.6960   -1.2469 H        1 ZINC000000001331    0.1300
34     H34    -2.7490    1.1825   -3.0439 H        1 ZINC000000001331    0.1300
35     H35    -2.1875    3.5222   -3.5301 H        1 ZINC000000001331    0.1300
36     H36    -3.3763    5.3333   -2.3485 H        1 ZINC000000001331    0.1300
37     H37    -5.1055    4.7977   -0.7043 H        1 ZINC000000001331    0.1300
38     H38    -5.7927    3.1569    0.9500 H        1 ZINC000000001331    0.1200
39     H39    -6.9577    2.8250   -0.3343 H        1 ZINC000000001331    0.0700
40     H40    -8.5639    0.1160    0.8096 H        1 ZINC000000001331    0.1400
41     H41    -9.4547   -1.6256   -0.6829 H        1 ZINC000000001331    0.1300
42     H42    -8.0954   -2.4969   -2.5346 H        1 ZINC000000001331    0.1300
43     H43    -5.8043   -1.6483   -2.8943 H        1 ZINC000000001331    0.1300
@<TRIPOS>BOND
1     1     2     1
2     1     23    1
3     1     24    1
4     1     25    1
5     2     3     1
6     2     4     1
7     2     5     1
8     4     26    1
9     4     27    1
10    4     28    1
11    5     6     1
12    5     29    1
13    5     30    1
14    6     7     1
15    6     31    1
16    6     32    1
17    7     8     2
18    7     33    1
19    8     22    1
20    8     9     1
21    9     14    ar
22    9     10    ar
23    10    11    ar
24    10    34    1
25    11    12    ar
26    11    35    1
27    12    13    ar
28    12    36    1
29    13    14    ar
30    13    37    1
31    14    15    1
32    15    16    1
33    15    38    1
34    15    39    1
35    16    17    1
36    17    22    ar
37    17    18    ar
38    18    19    ar
39    18    40    1
40    19    20    ar
41    19    41    1
42    20    21    ar
43    20    42    1
44    21    22    ar
45    21    43    1
@<TRIPOS>SUBSTRUCTURE
1   ZINC000000001331 1     RESIDUE    1   A     ZIN   1
