@<TRIPOS>MOLECULE
ZINC000003807804
43   46    0    0    0
SMALL
USER_CHARGES
NO_NAME
@<TRIPOS>ATOM
1 Cl1       0.0005     0.0021     0.0982 Cl     1 <0>      -0.0500
2 C2       -0.0195     1.7379     0.0827 C.ar   1 <0>      -0.0300
3 C3       -1.2242     2.4164     0.1281 C.ar   1 <0>      -0.1000
4 C4       -1.2395     3.7986     0.1157 C.ar   1 <0>      -0.0800
5 C5       -0.0515     4.5027     0.0579 C.ar   1 <0>      -0.1100
6 C6        1.1529     3.8251     0.0125 C.ar   1 <0>      -0.0800
7 C7        1.1697     2.4434     0.0307 C.ar   1 <0>      -0.1100
8 C8        2.4825     1.7050    -0.0182 C.3    1 <0>       0.3100
9 C9        3.6149     2.6972    -0.0828 C.ar   1 <0>      -0.1300
10 C10       4.5175     2.7848     0.9606 C.ar   1 <0>      -0.0900
11 C11       5.5562     3.6950     0.9014 C.ar   1 <0>      -0.1100
12 C12       5.6926     4.5173    -0.2013 C.ar   1 <0>      -0.0900
13 C13       4.7905     4.4291    -1.2451 C.ar   1 <0>      -0.1100
14 C14       3.7543     3.5160    -1.1878 C.ar   1 <0>      -0.1000
15 C15       2.6280     0.8565     1.2187 C.ar   1 <0>      -0.1100
16 C16       2.8952    -0.4948     1.1024 C.ar   1 <0>      -0.1200
17 C17       3.0286    -1.2731     2.2370 C.ar   1 <0>      -0.1000
18 C18       2.8954    -0.7001     3.4879 C.ar   1 <0>      -0.1000
19 C19       2.6291     0.6514     3.6042 C.ar   1 <0>      -0.1000
20 C20       2.4999     1.4305     2.4697 C.ar   1 <0>      -0.0900
21 N21       2.5165     0.8474    -1.2055 N.pl3  1 <0>      -0.4000
22 C22       1.5287     0.7210    -2.1447 C.2    1 <0>       0.0300
23 C23       1.9707    -0.1642    -3.0583 C.2    1 <0>       0.0000
24 N24       3.1950    -0.5672    -2.6871 N.pl3  1 <0>      -0.4700
25 H25       3.7457    -1.2053    -3.1673 H      1 <0>       0.4600
26 C26       3.5305     0.0383    -1.5809 C.cat  1 <0>       0.2900
27 H27      -2.1525     1.8663     0.1729 H      1 <0>       0.1500
28 H28      -2.1800     4.3284     0.1508 H      1 <0>       0.1500
29 H29      -0.0640     5.5826     0.0479 H      1 <0>       0.1400
30 H30       2.0808     4.3758    -0.0326 H      1 <0>       0.1500
31 H31       4.4109     2.1423     1.8222 H      1 <0>       0.1400
32 H32       6.2609     3.7639     1.7169 H      1 <0>       0.1400
33 H33       6.5037     5.2289    -0.2473 H      1 <0>       0.1300
34 H34       4.8969     5.0719    -2.1065 H      1 <0>       0.1300
35 H35       3.0496     3.4471    -2.0033 H      1 <0>       0.1200
36 H36       2.9993    -0.9425     0.1251 H      1 <0>       0.1100
37 H37       3.2367    -2.3290     2.1461 H      1 <0>       0.1300
38 H38       2.9989    -1.3083     4.3743 H      1 <0>       0.1300
39 H39       2.5246     1.0990     4.5815 H      1 <0>       0.1400
40 H40       2.2918     2.4864     2.5605 H      1 <0>       0.1300
41 H41       0.5775     1.2325    -2.1514 H      1 <0>       0.2100
42 H42       1.4336    -0.4920    -3.9360 H      1 <0>       0.2300
43 H43       4.4620    -0.0912    -1.0499 H      1 <0>       0.2600
@<TRIPOS>BOND
1    1    2 1
2    2    7 ar
3    2    3 ar
4    3    4 ar
5    3   27 1
6    4    5 ar
7    4   28 1
8    5    6 ar
9    5   29 1
10    6    7 ar
11    6   30 1
12    7    8 1
13    8    9 1
14    8   15 1
15    8   21 1
16    9   14 ar
17    9   10 ar
18   10   11 ar
19   10   31 1
20   11   12 ar
21   11   32 1
22   12   13 ar
23   12   33 1
24   13   14 ar
25   13   34 1
26   14   35 1
27   15   20 ar
28   15   16 ar
29   16   17 ar
30   16   36 1
31   17   18 ar
32   17   37 1
33   18   19 ar
34   18   38 1
35   19   20 ar
36   19   39 1
37   20   40 1
38   21   26 ar
39   21   22 1
40   22   23 2
41   22   41 1
42   23   24 1
43   23   42 1
44   24   25 1
45   24   26 ar
46   26   43 1
