@<TRIPOS>MOLECULE
ZINC000003938684
74    80    1     0     0
SMALL
USER_CHARGES
@<TRIPOS>ATOM
1      C1     -0.1712    1.1991   -1.3564 C.3      1 ZINC000003938684    0.0200
2      O2     -0.1012   -0.1556   -0.9071 O.3      1 ZINC000003938684   -0.3000
3      C3     -1.2533   -0.7144   -0.4489 C.ar     1 ZINC000003938684    0.1500
4      C4     -2.4267    0.0243   -0.4378 C.ar     1 ZINC000003938684   -0.2100
5      C5     -3.5982   -0.5428    0.0277 C.ar     1 ZINC000003938684   -0.0200
6      C6     -4.8712    0.2637    0.0379 C.3      1 ZINC000003938684    0.0200
7      H7     -4.6350    1.3241    0.1267 H        1 ZINC000003938684    0.1100
8      C8     -5.7434   -0.1678    1.2040 C.ar     1 ZINC000003938684   -0.0400
9      C9     -5.3812    0.3278    2.4577 C.ar     1 ZINC000003938684   -0.0900
10     C10    -6.1558   -0.0323    3.5476 C.ar     1 ZINC000003938684    0.0500
11     C11    -7.2717   -0.8686    3.3920 C.ar     1 ZINC000003938684    0.0400
12     C12    -7.6231   -1.3589    2.1456 C.ar     1 ZINC000003938684   -0.0900
13     C13    -6.8332   -0.9979    1.0526 C.ar     1 ZINC000003938684   -0.1100
14     C14    -7.2382   -1.5874   -0.2870 C.3      1 ZINC000003938684    0.1500
15     H15    -7.5255   -2.6310   -0.1588 H        1 ZINC000003938684    0.1000
16     O16    -8.3339   -0.8476   -0.8293 O.3      1 ZINC000003938684   -0.3500
17     C17    -9.6175   -1.3446   -0.4455 C.3      1 ZINC000003938684    0.2200
18     H18    -9.6767   -1.3918    0.6419 H        1 ZINC000003938684    0.0800
19     O19    -9.8009   -2.6562   -0.9886 O.3      1 ZINC000003938684   -0.3800
20     C20   -11.0544   -3.2407   -0.6424 C.3      1 ZINC000003938684    0.0400
21     H21   -11.1523   -3.2729    0.4428 H        1 ZINC000003938684    0.0900
22     C22   -11.1802   -4.6564   -1.2069 C.3      1 ZINC000003938684    0.0700
23     O23   -12.4959   -5.1429   -0.9137 O.3      1 ZINC000003938684   -0.3800
24     C24   -13.5529   -4.3255   -1.4186 C.3      1 ZINC000003938684    0.2400
25     H25   -13.5024   -4.3012   -2.5072 H        1 ZINC000003938684    0.0600
26     C26   -14.8983   -4.9116   -0.9861 C.3      1 ZINC000003938684   -0.1400
27     O27   -13.4319   -2.9932   -0.9079 O.3      1 ZINC000003938684   -0.3700
28     C28   -12.1824   -2.3840   -1.2316 C.3      1 ZINC000003938684    0.0700
29     H29   -12.0739   -2.3305   -2.3149 H        1 ZINC000003938684    0.0800
30     C30   -12.0839   -0.9782   -0.6393 C.3      1 ZINC000003938684    0.1300
31     H31   -12.2092   -1.0268    0.4424 H        1 ZINC000003938684    0.0800
32     O32   -13.1001   -0.1470   -1.2036 O.3      1 ZINC000003938684   -0.5400
33     C33   -10.7039   -0.4057   -0.9729 C.3      1 ZINC000003938684    0.0600
34     H34   -10.6061   -0.3012   -2.0534 H        1 ZINC000003938684    0.0900
35     O35   -10.5587    0.8752   -0.3562 O.3      1 ZINC000003938684   -0.5500
36     C36    -6.0439   -1.4947   -1.2181 C.3      1 ZINC000003938684   -0.1400
37     H37    -5.2244   -2.1348   -0.8913 H        1 ZINC000003938684    0.1300
38     C38    -6.3607   -1.6825   -2.7101 C.3      1 ZINC000003938684    0.0700
39     O39    -5.3370   -0.8608   -3.3713 O.3      1 ZINC000003938684   -0.3400
40     C40    -4.8838    0.1041   -2.5370 C.2      1 ZINC000003938684    0.5000
41     O41    -4.0076    0.8985   -2.7838 O.2      1 ZINC000003938684   -0.4400
42     C42    -5.6444    0.0165   -1.2407 C.3      1 ZINC000003938684   -0.1500
43     H43    -6.5407    0.6354   -1.2839 H        1 ZINC000003938684    0.1400
44     O44    -7.8469   -1.0568    4.6014 O.3      1 ZINC000003938684   -0.3000
45     C45    -6.8540   -0.6542    5.5678 C.3      1 ZINC000003938684    0.2100
46     O46    -6.0359    0.2961    4.8540 O.3      1 ZINC000003938684   -0.3000
47     C47    -3.6054   -1.8478    0.4835 C.ar     1 ZINC000003938684   -0.2300
48     C48    -2.4361   -2.5932    0.4758 C.ar     1 ZINC000003938684    0.1400
49     O49    -2.4442   -3.8770    0.9244 O.3      1 ZINC000003938684   -0.3000
50     C50    -3.6926   -4.3939    1.3896 C.3      1 ZINC000003938684    0.0300
51     C51    -1.2573   -2.0285    0.0036 C.ar     1 ZINC000003938684    0.0400
52     O52    -0.1077   -2.7568   -0.0056 O.3      1 ZINC000003938684   -0.4700
53     H53     0.8137    1.5211   -1.6946 H        1 ZINC000003938684    0.1000
54     H54    -0.8803    1.2722   -2.1810 H        1 ZINC000003938684    0.0600
55     H55    -0.5003    1.8374   -0.5364 H        1 ZINC000003938684    0.0600
56     H56    -2.4253    1.0442   -0.7931 H        1 ZINC000003938684    0.1400
57     H57    -4.5229    0.9729    2.5740 H        1 ZINC000003938684    0.1500
58     H58    -8.4825   -2.0013    2.0227 H        1 ZINC000003938684    0.1400
59     H59   -11.0279   -4.6365   -2.2860 H        1 ZINC000003938684    0.0700
60     H60   -10.4369   -5.3045   -0.7424 H        1 ZINC000003938684    0.1200
61     H61   -14.9488   -4.9410    0.1023 H        1 ZINC000003938684    0.0700
62     H62   -15.7063   -4.2891   -1.3706 H        1 ZINC000003938684    0.0800
63     H63   -14.9985   -5.9223   -1.3819 H        1 ZINC000003938684    0.0800
64     H64   -13.0952    0.7610   -0.8710 H        1 ZINC000003938684    0.3900
65     H65    -9.7059    1.2986   -0.5251 H        1 ZINC000003938684    0.3900
66     H66    -6.2593   -2.7291   -2.9969 H        1 ZINC000003938684    0.1100
67     H67    -7.3599   -1.3133   -2.9414 H        1 ZINC000003938684    0.1000
68     H68    -7.3278   -0.1804    6.4276 H        1 ZINC000003938684    0.1400
69     H69    -6.2580   -1.5107    5.8827 H        1 ZINC000003938684    0.0900
70     H70    -4.5227   -2.2872    0.8464 H        1 ZINC000003938684    0.1400
71     H71    -4.0476   -3.7896    2.2245 H        1 ZINC000003938684    0.0600
72     H72    -4.4230   -4.3616    0.5812 H        1 ZINC000003938684    0.0600
73     H73    -3.5593   -5.4247    1.7180 H        1 ZINC000003938684    0.1000
74     H74     0.0361   -3.2544   -0.8222 H        1 ZINC000003938684    0.3800
@<TRIPOS>BOND
1     1     2     1
2     1     53    1
3     1     54    1
4     1     55    1
5     2     3     1
6     3     51    ar
7     3     4     ar
8     4     5     ar
9     4     56    1
10    5     6     1
11    5     47    ar
12    6     7     1
13    6     42    1
14    6     8     1
15    8     13    ar
16    8     9     ar
17    9     10    ar
18    9     57    1
19    10    46    1
20    10    11    ar
21    11    12    ar
22    11    44    1
23    12    13    ar
24    12    58    1
25    13    14    1
26    14    15    1
27    14    16    1
28    14    36    1
29    16    17    1
30    17    18    1
31    17    33    1
32    17    19    1
33    19    20    1
34    20    21    1
35    20    28    1
36    20    22    1
37    22    23    1
38    22    59    1
39    22    60    1
40    23    24    1
41    24    25    1
42    24    26    1
43    24    27    1
44    26    61    1
45    26    62    1
46    26    63    1
47    27    28    1
48    28    29    1
49    28    30    1
50    30    31    1
51    30    32    1
52    30    33    1
53    32    64    1
54    33    34    1
55    33    35    1
56    35    65    1
57    36    37    1
58    36    42    1
59    36    38    1
60    38    39    1
61    38    66    1
62    38    67    1
63    39    40    1
64    40    41    2
65    40    42    1
66    42    43    1
67    44    45    1
68    45    46    1
69    45    68    1
70    45    69    1
71    47    48    ar
72    47    70    1
73    48    49    1
74    48    51    ar
75    49    50    1
76    50    71    1
77    50    72    1
78    50    73    1
79    51    52    1
80    52    74    1
@<TRIPOS>SUBSTRUCTURE
1   ZINC000003938684 1     RESIDUE    1   A     ZIN   1
