@<TRIPOS>MOLECULE
ZINC000003943279
87    90    1     0     0
SMALL
USER_CHARGES
@<TRIPOS>ATOM
1      C1     -0.0843    2.6888   -1.5626 C.3      1 ZINC000003943279   -0.1500
2      C2      1.3848    2.2621   -1.5398 C.3      1 ZINC000003943279   -0.1300
3      C3      1.6499    1.2848   -2.6868 C.3      1 ZINC000003943279   -0.1200
4      C4      3.1190    0.8581   -2.6640 C.3      1 ZINC000003943279   -0.1200
5      C5      3.3841   -0.1191   -3.8110 C.3      1 ZINC000003943279   -0.1200
6      C6      4.8532   -0.5458   -3.7882 C.3      1 ZINC000003943279    0.0700
7      O7      5.1008   -1.4585   -4.8595 O.3      1 ZINC000003943279   -0.3800
8      C8      6.3579   -1.9340   -4.9811 C.2      1 ZINC000003943279    0.6200
9      O9      7.2201   -1.5820   -4.1974 O.2      1 ZINC000003943279   -0.5300
10     N10     6.6568   -2.7934   -5.9644 N.2      1 ZINC000003943279   -0.6000
11     C11     6.2777   -4.0586   -5.8756 C.2      1 ZINC000003943279    0.5400
12     N12     5.4947   -4.4658   -4.8320 N.pl3    1 ZINC000003943279   -0.8500
13     C13     6.6998   -5.0276   -6.9015 C.ar     1 ZINC000003943279   -0.1500
14     C14     7.5061   -4.6138   -7.9674 C.ar     1 ZINC000003943279    0.0100
15     C15     7.8970   -5.5184   -8.9205 C.ar     1 ZINC000003943279   -0.2000
16     C16     7.4925   -6.8477   -8.8286 C.ar     1 ZINC000003943279    0.2500
17     N17     7.8911   -7.7623   -9.7966 N.pl3    1 ZINC000003943279   -0.7300
18     C18     7.4666   -9.1613   -9.7016 C.3      1 ZINC000003943279    0.2000
19     C19     8.0292   -9.9370  -10.8646 C.2      1 ZINC000003943279    0.2600
20     N20     7.4386  -10.0902  -12.0132 N.2      1 ZINC000003943279   -0.4600
21     C21     8.2210  -10.8424  -12.8305 C.ar     1 ZINC000003943279    0.0400
22     C22     8.0799  -11.3012  -14.1389 C.ar     1 ZINC000003943279    0.0200
23     C23     9.0890  -12.0729  -14.7073 C.ar     1 ZINC000003943279   -0.1500
24     C24     8.9486  -12.5636  -16.0927 C.2      1 ZINC000003943279    0.5700
25     O25     7.8487  -12.8378  -16.5319 O.2      1 ZINC000003943279   -0.5000
26     N26    10.0399  -12.7074  -16.8705 N.am     1 ZINC000003943279   -0.5400
27     C27    11.3765  -12.5337  -16.2966 C.3      1 ZINC000003943279    0.0900
28     C28    12.0042  -13.9054  -16.0412 C.3      1 ZINC000003943279   -0.1400
29     C29    13.3792  -13.7267  -15.4508 C.2      1 ZINC000003943279    0.4700
30     O30    13.8126  -12.6161  -15.2544 O.2      1 ZINC000003943279   -0.5000
31     O31    14.1223  -14.8013  -15.1431 O.3      1 ZINC000003943279   -0.3600
32     C32    15.4368  -14.5538  -14.5780 C.3      1 ZINC000003943279    0.0600
33     C33    16.1294  -15.8882  -14.2944 C.3      1 ZINC000003943279   -0.1500
34     C34     9.8968  -13.0214  -18.2203 C.ar     1 ZINC000003943279    0.3500
35     C35     8.6621  -12.8585  -18.8381 C.ar     1 ZINC000003943279   -0.1900
36     C36     8.5338  -13.1742  -20.1795 C.ar     1 ZINC000003943279   -0.0500
37     C37     9.6494  -13.6436  -20.8589 C.ar     1 ZINC000003943279   -0.1900
38     C38    10.8454  -13.7809  -20.1819 C.ar     1 ZINC000003943279    0.1300
39     N39    10.9391  -13.4670  -18.9041 N.ar     1 ZINC000003943279   -0.5100
40     C40    10.2380  -12.3852  -13.9687 C.ar     1 ZINC000003943279   -0.0900
41     C41    10.3795  -11.9376  -12.6873 C.ar     1 ZINC000003943279   -0.1100
42     C42     9.3815  -11.1659  -12.1031 C.ar     1 ZINC000003943279    0.0800
43     N43     9.2318  -10.5742  -10.8676 N.pl3    1 ZINC000003943279   -0.4800
44     C44    10.1906  -10.6224   -9.7609 C.3      1 ZINC000003943279    0.0700
45     C45     6.6900   -7.2632   -7.7691 C.ar     1 ZINC000003943279   -0.2100
46     C46     6.3000   -6.3652   -6.8093 C.ar     1 ZINC000003943279   -0.0300
47     H47    -0.3069    3.1746   -2.5126 H        1 ZINC000003943279    0.0500
48     H48    -0.7196    1.8107   -1.4460 H        1 ZINC000003943279    0.0500
49     H49    -0.2732    3.3850   -0.7454 H        1 ZINC000003943279    0.0500
50     H50     2.0200    3.1401   -1.6564 H        1 ZINC000003943279    0.0600
51     H51     1.6073    1.7762   -0.5898 H        1 ZINC000003943279    0.0600
52     H52     1.0147    0.4068   -2.5702 H        1 ZINC000003943279    0.0600
53     H53     1.4274    1.7707   -3.6368 H        1 ZINC000003943279    0.0600
54     H54     3.7542    1.7362   -2.7806 H        1 ZINC000003943279    0.0700
55     H55     3.3415    0.3723   -1.7140 H        1 ZINC000003943279    0.0700
56     H56     2.7489   -0.9972   -3.6944 H        1 ZINC000003943279    0.0700
57     H57     3.1616    0.3667   -4.7610 H        1 ZINC000003943279    0.0700
58     H58     5.4885    0.3323   -3.9048 H        1 ZINC000003943279    0.0700
59     H59     5.0758   -1.0316   -2.8382 H        1 ZINC000003943279    0.0600
60     H60     5.1558   -3.8152   -4.1973 H        1 ZINC000003943279    0.4100
61     H61     5.2778   -5.4053   -4.7260 H        1 ZINC000003943279    0.4100
62     H62     7.8199   -3.5829   -8.0395 H        1 ZINC000003943279    0.1400
63     H63     8.5191   -5.1996   -9.7438 H        1 ZINC000003943279    0.1300
64     H64     8.4504   -7.4743  -10.5349 H        1 ZINC000003943279    0.4100
65     H65     7.8323   -9.5894   -8.7683 H        1 ZINC000003943279    0.0900
66     H66     6.3780   -9.2128   -9.7230 H        1 ZINC000003943279    0.1000
67     H67     7.1939  -11.0599  -14.7074 H        1 ZINC000003943279    0.1500
68     H68    12.0005  -11.9724  -16.9921 H        1 ZINC000003943279    0.1000
69     H69    11.3000  -11.9883  -15.3559 H        1 ZINC000003943279    0.1300
70     H70    11.3803  -14.4666  -15.3456 H        1 ZINC000003943279    0.1100
71     H71    12.0808  -14.4508  -16.9818 H        1 ZINC000003943279    0.1300
72     H72    16.0336  -13.9777  -15.2850 H        1 ZINC000003943279    0.0700
73     H73    15.3331  -13.9936  -13.6487 H        1 ZINC000003943279    0.0700
74     H74    15.5325  -16.4644  -13.5874 H        1 ZINC000003943279    0.0700
75     H75    16.2330  -16.4485  -15.2236 H        1 ZINC000003943279    0.0700
76     H76    17.1161  -15.7025  -13.8701 H        1 ZINC000003943279    0.0800
77     H77     7.8145  -12.4910  -18.2789 H        1 ZINC000003943279    0.1700
78     H78     7.5871  -13.0582  -20.6860 H        1 ZINC000003943279    0.1400
79     H79     9.5828  -13.8993  -21.9061 H        1 ZINC000003943279    0.1400
80     H80    11.7159  -14.1462  -20.7063 H        1 ZINC000003943279    0.1600
81     H81    11.0169  -12.9846  -14.4164 H        1 ZINC000003943279    0.1500
82     H82    11.2685  -12.1837  -12.1257 H        1 ZINC000003943279    0.1300
83     H83    10.8795   -9.7815   -9.8403 H        1 ZINC000003943279    0.0800
84     H84     9.6549  -10.5651   -8.8134 H        1 ZINC000003943279    0.0900
85     H85    10.7506  -11.5564   -9.8058 H        1 ZINC000003943279    0.0900
86     H86     6.3781   -8.2949   -7.7009 H        1 ZINC000003943279    0.1300
87     H87     5.6776   -6.6881   -5.9878 H        1 ZINC000003943279    0.1300
@<TRIPOS>BOND
1     1     2     1
2     1     47    1
3     1     48    1
4     1     49    1
5     2     3     1
6     2     50    1
7     2     51    1
8     3     4     1
9     3     52    1
10    3     53    1
11    4     5     1
12    4     54    1
13    4     55    1
14    5     6     1
15    5     56    1
16    5     57    1
17    6     7     1
18    6     58    1
19    6     59    1
20    7     8     1
21    8     9     2
22    8     10    1
23    10    11    2
24    11    12    1
25    11    13    1
26    12    60    1
27    12    61    1
28    13    46    ar
29    13    14    ar
30    14    15    ar
31    14    62    1
32    15    16    ar
33    15    63    1
34    16    17    1
35    16    45    ar
36    17    18    1
37    17    64    1
38    18    19    1
39    18    65    1
40    18    66    1
41    19    43    1
42    19    20    2
43    20    21    1
44    21    42    ar
45    21    22    ar
46    22    23    ar
47    22    67    1
48    23    24    1
49    23    40    ar
50    24    25    2
51    24    26    am
52    26    27    1
53    26    34    1
54    27    28    1
55    27    68    1
56    27    69    1
57    28    29    1
58    28    70    1
59    28    71    1
60    29    30    2
61    29    31    1
62    31    32    1
63    32    33    1
64    32    72    1
65    32    73    1
66    33    74    1
67    33    75    1
68    33    76    1
69    34    39    ar
70    34    35    ar
71    35    36    ar
72    35    77    1
73    36    37    ar
74    36    78    1
75    37    38    ar
76    37    79    1
77    38    39    ar
78    38    80    1
79    40    41    ar
80    40    81    1
81    41    42    ar
82    41    82    1
83    42    43    1
84    43    44    1
85    44    83    1
86    44    84    1
87    44    85    1
88    45    46    ar
89    45    86    1
90    46    87    1
@<TRIPOS>SUBSTRUCTURE
1   ZINC000003943279 1     RESIDUE    1   A     ZIN   1
