@<TRIPOS>MOLECULE
ZINC000008220909
94    97    1     0     0
SMALL
USER_CHARGES
@<TRIPOS>ATOM
1      C1     -0.8633   -4.5576   -1.2367 C.3      1 ZINC000008220909   -0.1500
2      C2      0.1336   -5.6905   -1.4886 C.3      1 ZINC000008220909    0.0700
3      H3     -0.4034   -6.5819   -1.8129 H        1 ZINC000008220909    0.0800
4      O4      1.0578   -5.2951   -2.5043 O.3      1 ZINC000008220909   -0.3800
5      C5      2.0224   -6.2956   -2.8371 C.3      1 ZINC000008220909    0.2400
6      H6      1.5102   -7.1950   -3.1789 H        1 ZINC000008220909    0.0700
7      O7      2.8750   -5.8089   -3.8755 O.3      1 ZINC000008220909   -0.3200
8      C8      2.1947   -5.5204   -5.0986 C.3      1 ZINC000008220909    0.1300
9      H9      1.1467   -5.8059   -5.0082 H        1 ZINC000008220909    0.0800
10     C10     2.2906   -4.0493   -5.3911 C.2      1 ZINC000008220909   -0.1500
11     C11     1.8720   -3.1091   -4.5366 C.2      1 ZINC000008220909   -0.1100
12     C12     2.0654   -1.7193   -4.9367 C.2      1 ZINC000008220909   -0.1100
13     C13     2.0049   -0.6718   -4.1010 C.2      1 ZINC000008220909   -0.1200
14     C14     2.4863    0.5785   -4.5514 C.2      1 ZINC000008220909   -0.1200
15     C15     3.6330    1.0548   -4.0557 C.2      1 ZINC000008220909   -0.1100
16     C16     4.3881    2.1442   -4.6714 C.2      1 ZINC000008220909   -0.1300
17     C17     5.6935    2.2121   -4.3712 C.2      1 ZINC000008220909   -0.1300
18     C18     6.5900    3.2431   -4.9905 C.3      1 ZINC000008220909   -0.0900
19     C19     8.0173    2.6936   -5.0570 C.3      1 ZINC000008220909    0.1000
20     H20     8.6636    3.4244   -5.5431 H        1 ZINC000008220909    0.0800
21     C21     8.5262    2.4304   -3.6383 C.3      1 ZINC000008220909   -0.1900
22     O22     8.0398    1.4543   -5.8112 O.3      1 ZINC000008220909   -0.3500
23     C23     9.1652    0.7096   -5.7433 C.2      1 ZINC000008220909    0.5000
24     O24    10.0832    1.0600   -5.0281 O.2      1 ZINC000008220909   -0.5000
25     C25     9.2787   -0.5199   -6.5309 C.2      1 ZINC000008220909   -0.1800
26     C26    10.3797   -1.2686   -6.4666 C.2      1 ZINC000008220909   -0.0400
27     C27    10.4851   -2.5212   -7.2939 C.3      1 ZINC000008220909    0.0100
28     H28    10.0900   -2.4530   -8.3073 H        1 ZINC000008220909    0.1400
29     O29    11.6121   -3.3752   -7.0743 O.3      1 ZINC000008220909   -0.3300
30     C30    10.3698   -3.8698   -6.5766 C.3      1 ZINC000008220909    0.0200
31     H31    10.2100   -3.8478   -5.4938 H        1 ZINC000008220909    0.1300
32     C32     9.7024   -5.0305   -7.3167 C.3      1 ZINC000008220909   -0.1500
33     C33     8.5706   -5.6063   -6.4610 C.3      1 ZINC000008220909    0.1200
34     H34     8.0803   -4.7970   -5.9199 H        1 ZINC000008220909    0.0600
35     O35     9.1136   -6.5396   -5.5250 O.3      1 ZINC000008220909   -0.5300
36     C36     7.5454   -6.3188   -7.3425 C.3      1 ZINC000008220909   -0.1300
37     C37     6.4928   -7.0094   -6.4683 C.3      1 ZINC000008220909    0.3000
38     O38     6.8551   -6.8683   -5.0930 O.3      1 ZINC000008220909   -0.5300
39     C39     6.4359   -8.4953   -6.8281 C.3      1 ZINC000008220909   -0.1600
40     C40     4.9792   -8.9113   -7.0562 C.3      1 ZINC000008220909    0.1300
41     H41     4.9172   -9.9977   -7.1199 H        1 ZINC000008220909    0.0500
42     O42     4.5042   -8.3348   -8.2745 O.3      1 ZINC000008220909   -0.5600
43     C43     4.1213   -8.4196   -5.8914 C.3      1 ZINC000008220909   -0.1800
44     H44     3.0881   -8.7312   -6.0448 H        1 ZINC000008220909    0.0700
45     C45     4.6373   -9.0096   -4.6043 C.2      1 ZINC000008220909    0.5200
46     O46     5.5660   -9.7993   -4.6248 O.co2    1 ZINC000008220909   -0.6800
47     O47     4.1261   -8.6972   -3.5424 O.co2    1 ZINC000008220909   -0.7100
48     C48     4.1866   -6.8896   -5.8130 C.3      1 ZINC000008220909    0.1300
49     H49     4.4093   -6.5909   -4.7890 H        1 ZINC000008220909    0.0900
50     C50     2.8412   -6.3062   -6.2399 C.3      1 ZINC000008220909   -0.1200
51     O51     5.2136   -6.4164   -6.6891 O.3      1 ZINC000008220909   -0.3900
52     C52     2.8615   -6.6250   -1.5997 C.3      1 ZINC000008220909    0.0600
53     H53     3.5684   -7.4192   -1.8397 H        1 ZINC000008220909    0.1500
54     O54     3.5760   -5.4596   -1.1831 O.3      1 ZINC000008220909   -0.5700
55     C55     1.9341   -7.0886   -0.4721 C.3      1 ZINC000008220909    0.0500
56     H56     1.4268   -8.0058   -0.7713 H        1 ZINC000008220909    0.1600
57     N57     2.7228   -7.3369    0.7421 N.4      1 ZINC000008220909   -0.6200
58     H58     3.1896   -6.4866    1.0196 H        1 ZINC000008220909    0.4400
59     H59     2.1109   -7.6423    1.4840 H        1 ZINC000008220909    0.4400
60     H60     3.4096   -8.0525    0.5566 H        1 ZINC000008220909    0.4400
61     C61     0.8966   -5.9958   -0.1970 C.3      1 ZINC000008220909    0.0600
62     H62     1.4009   -5.0938    0.1498 H        1 ZINC000008220909    0.1000
63     O63    -0.0177   -6.4466    0.8044 O.3      1 ZINC000008220909   -0.5700
64     H64    -0.3261   -3.6663   -0.9125 H        1 ZINC000008220909    0.0700
65     H65    -1.4061   -4.3401   -2.1566 H        1 ZINC000008220909    0.0800
66     H66    -1.5678   -4.8592   -0.4617 H        1 ZINC000008220909    0.0800
67     H67     2.7253   -3.7265   -6.3348 H        1 ZINC000008220909    0.1200
68     H68     1.4279   -3.3628   -3.5914 H        1 ZINC000008220909    0.1300
69     H69     2.2570   -1.5171   -5.9936 H        1 ZINC000008220909    0.1100
70     H70     1.6000   -0.7676   -3.1059 H        1 ZINC000008220909    0.1100
71     H71     1.9264    1.1368   -5.2886 H        1 ZINC000008220909    0.1200
72     H72     4.0239    0.6228   -3.1326 H        1 ZINC000008220909    0.1100
73     H73     3.9270    2.8510   -5.3318 H        1 ZINC000008220909    0.1200
74     H74     6.0913    1.4999   -3.6568 H        1 ZINC000008220909    0.1100
75     H75     6.2406    3.4721   -5.9972 H        1 ZINC000008220909    0.0800
76     H76     6.5764    4.1490   -4.3844 H        1 ZINC000008220909    0.1000
77     H77     8.0525    1.5318   -3.2432 H        1 ZINC000008220909    0.0600
78     H78     9.6072    2.2918   -3.6600 H        1 ZINC000008220909    0.0900
79     H79     8.2816    3.2802   -3.0011 H        1 ZINC000008220909    0.0700
80     H80     8.4599   -0.8281   -7.1716 H        1 ZINC000008220909    0.1400
81     H81    11.1895   -0.9719   -5.8202 H        1 ZINC000008220909    0.1400
82     H82     9.2956   -4.6717   -8.2622 H        1 ZINC000008220909    0.0900
83     H83    10.4407   -5.8082   -7.5123 H        1 ZINC000008220909    0.0900
84     H84     9.7641   -6.1570   -4.9204 H        1 ZINC000008220909    0.3700
85     H85     7.0567   -5.5908   -7.9900 H        1 ZINC000008220909    0.0900
86     H86     8.0516   -7.0641   -7.9561 H        1 ZINC000008220909    0.0800
87     H87     6.9183   -5.9505   -4.7950 H        1 ZINC000008220909    0.3500
88     H88     7.0105   -8.6710   -7.7376 H        1 ZINC000008220909    0.0600
89     H89     6.8580   -9.0828   -6.0128 H        1 ZINC000008220909    0.1200
90     H90     5.0037   -8.6035   -9.0577 H        1 ZINC000008220909    0.3600
91     H91     2.1776   -7.1182   -6.5371 H        1 ZINC000008220909    0.0700
92     H92     2.9936   -5.6412   -7.0900 H        1 ZINC000008220909    0.0800
93     H93     4.1800   -5.1087   -1.8518 H        1 ZINC000008220909    0.4200
94     H94    -0.7038   -5.8032    1.0289 H        1 ZINC000008220909    0.4000
@<TRIPOS>BOND
1     1     2     1
2     1     64    1
3     1     65    1
4     1     66    1
5     2     3     1
6     2     61    1
7     2     4     1
8     4     5     1
9     5     6     1
10    5     7     1
11    5     52    1
12    7     8     1
13    8     9     1
14    8     50    1
15    8     10    1
16    10    11    2
17    10    67    1
18    11    12    1
19    11    68    1
20    12    13    2
21    12    69    1
22    13    14    1
23    13    70    1
24    14    15    2
25    14    71    1
26    15    16    1
27    15    72    1
28    16    17    2
29    16    73    1
30    17    18    1
31    17    74    1
32    18    19    1
33    18    75    1
34    18    76    1
35    19    20    1
36    19    21    1
37    19    22    1
38    21    77    1
39    21    78    1
40    21    79    1
41    22    23    1
42    23    24    2
43    23    25    1
44    25    26    2
45    25    80    1
46    26    27    1
47    26    81    1
48    27    28    1
49    27    30    1
50    27    29    1
51    29    30    1
52    30    31    1
53    30    32    1
54    32    33    1
55    32    82    1
56    32    83    1
57    33    34    1
58    33    35    1
59    33    36    1
60    35    84    1
61    36    37    1
62    36    85    1
63    36    86    1
64    37    51    1
65    37    38    1
66    37    39    1
67    38    87    1
68    39    40    1
69    39    88    1
70    39    89    1
71    40    41    1
72    40    42    1
73    40    43    1
74    42    90    1
75    43    44    1
76    43    45    1
77    43    48    1
78    45    46    ar
79    45    47    ar
80    48    49    1
81    48    50    1
82    48    51    1
83    50    91    1
84    50    92    1
85    52    53    1
86    52    54    1
87    52    55    1
88    54    93    1
89    55    56    1
90    55    57    1
91    55    61    1
92    57    58    1
93    57    59    1
94    57    60    1
95    61    62    1
96    61    63    1
97    63    94    1
@<TRIPOS>SUBSTRUCTURE
1   ZINC000008220909 1     RESIDUE    1   A     ZIN   1
