@<TRIPOS>MOLECULE
ZINC000003927870
36    38    1     0     0
SMALL
USER_CHARGES
@<TRIPOS>ATOM
1      N1     -0.0167    1.3795    0.0096 N.pl3    1 ZINC000003927870   -0.8100
2      C2      0.0021   -0.0041    0.0020 C.ar     1 ZINC000003927870    0.5400
3      C3     -1.1956   -0.7388    0.0037 C.ar     1 ZINC000003927870   -0.1000
4      N4     -2.5116   -0.4148    0.0116 N.2      1 ZINC000003927870   -0.4700
5      C5     -3.2254   -1.5027    0.0091 C.2      1 ZINC000003927870    0.3000
6      N6     -2.4093   -2.5952   -0.0007 N.pl3    1 ZINC000003927870   -0.4500
7      C7     -2.8367   -3.9965   -0.0062 C.3      1 ZINC000003927870    0.3100
8      H8     -2.1586   -4.6009   -0.6086 H        1 ZINC000003927870    0.1300
9      O9     -4.1907   -4.1131   -0.4935 O.3      1 ZINC000003927870   -0.3400
10     C10    -4.7048   -5.3649   -0.0088 C.3      1 ZINC000003927870    0.0900
11     H11    -4.5390   -6.1459   -0.7509 H        1 ZINC000003927870    0.1000
12     C12    -6.2009   -5.2347    0.2836 C.3      1 ZINC000003927870    0.1400
13     O13    -6.9087   -5.0224   -0.9395 O.3      1 ZINC000003927870   -0.7500
14     P14    -8.5070   -4.8411   -1.0077 P.3      1 ZINC000003927870    2.2100
15     O15    -8.9353   -3.6910   -0.0692 O.2      1 ZINC000003927870   -1.1100
16     O16    -9.1933   -6.1518   -0.5625 O.3      1 ZINC000003927870   -1.1100
17     O17    -8.9437   -4.4927   -2.5176 O.3      1 ZINC000003927870   -0.9000
18     C18    -3.9418   -5.7027    1.2867 C.3      1 ZINC000003927870    0.0500
19     H19    -4.6243   -5.7258    2.1364 H        1 ZINC000003927870    0.1000
20     O20    -3.2646   -6.9542    1.1566 O.3      1 ZINC000003927870   -0.5500
21     C21    -2.9202   -4.5473    1.4401 C.3      1 ZINC000003927870    0.0400
22     H22    -1.9534   -4.9247    1.7733 H        1 ZINC000003927870    0.0900
23     O23    -3.4111   -3.5481    2.3360 O.3      1 ZINC000003927870   -0.5400
24     C24    -1.1146   -2.1414   -0.0043 C.ar     1 ZINC000003927870    0.3300
25     N25     0.0821   -2.7199   -0.0127 N.ar     1 ZINC000003927870   -0.5700
26     C26     1.1808   -1.9904   -0.0135 C.ar     1 ZINC000003927870    0.5600
27     F27     2.3779   -2.6165   -0.0221 F        1 ZINC000003927870   -0.0800
28     N28     1.1533   -0.6679   -0.0125 N.ar     1 ZINC000003927870   -0.6100
29     H29     0.8167    1.8759    0.0043 H        1 ZINC000003927870    0.4100
30     H30    -0.8632    1.8531    0.0162 H        1 ZINC000003927870    0.4200
31     H31    -4.3049   -1.5356    0.0143 H        1 ZINC000003927870    0.2300
32     H32    -6.5595   -6.1488    0.7569 H        1 ZINC000003927870    0.0700
33     H33    -6.3684   -4.3898    0.9517 H        1 ZINC000003927870    0.0700
34     H34    -9.8958   -4.3696   -2.6333 H        1 ZINC000003927870    0.4200
35     H35    -2.7677   -7.2163    1.9437 H        1 ZINC000003927870    0.3900
36     H36    -3.5687   -3.8687    3.2345 H        1 ZINC000003927870    0.3900
@<TRIPOS>BOND
1     1     2     1
2     1     29    1
3     1     30    1
4     2     28    ar
5     2     3     ar
6     3     24    ar
7     3     4     1
8     4     5     2
9     5     6     1
10    5     31    1
11    6     7     1
12    6     24    1
13    7     8     1
14    7     21    1
15    7     9     1
16    9     10    1
17    10    11    1
18    10    12    1
19    10    18    1
20    12    13    1
21    12    32    1
22    12    33    1
23    13    14    1
24    14    15    2
25    14    16    1
26    14    17    1
27    17    34    1
28    18    19    1
29    18    20    1
30    18    21    1
31    20    35    1
32    21    22    1
33    21    23    1
34    23    36    1
35    24    25    ar
36    25    26    ar
37    26    27    1
38    26    28    ar
@<TRIPOS>SUBSTRUCTURE
1   ZINC000003927870 1     RESIDUE    1   A     ZIN   1
