@<TRIPOS>MOLECULE
ZINC000000004076
49    51    1     0     0
SMALL
USER_CHARGES
@<TRIPOS>ATOM
1      C1     -0.0178    1.4608    0.0101 C.3      1 ZINC000000004076    0.0800
2      N2      0.0021   -0.0041    0.0020 N.am     1 ZINC000000004076   -1.1200
3      S3      0.7421   -0.8289    1.2326 S.o2     1 ZINC000000004076    2.6100
4      O4      0.5872   -2.1968    0.8805 O.2      1 ZINC000000004076   -0.9600
5      O5      2.0310   -0.2377    1.3253 O.2      1 ZINC000000004076   -0.9500
6      C6     -0.2466   -0.4337    2.7012 C.3      1 ZINC000000004076   -0.6300
7      C7      0.3437   -1.1455    3.9201 C.3      1 ZINC000000004076   -0.0700
8      C8     -0.4777   -0.8173    5.1402 C.ar     1 ZINC000000004076   -0.0900
9      C9     -0.1531    0.2903    5.9110 C.ar     1 ZINC000000004076   -0.0900
10     C10    -0.8908    0.6079    7.0306 C.ar     1 ZINC000000004076   -0.1200
11     C11    -1.9723   -0.1875    7.3938 C.ar     1 ZINC000000004076    0.1000
12     N12    -2.8812   -0.1377    8.4269 N.pl3    1 ZINC000000004076   -0.5900
13     C13    -3.7617   -1.1799    8.3226 C.2      1 ZINC000000004076    0.0700
14     C14    -3.4641   -1.9245    7.2461 C.2      1 ZINC000000004076   -0.1900
15     C15    -4.1920   -3.1595    6.7814 C.3      1 ZINC000000004076   -0.0200
16     C16    -4.1484   -4.2241    7.8814 C.3      1 ZINC000000004076   -0.1400
17     C17    -4.9563   -5.4445    7.4349 C.3      1 ZINC000000004076   -0.0100
18     N18    -6.3485   -5.0506    7.1881 N.4      1 ZINC000000004076   -0.3800
19     H19    -6.7312   -4.6310    8.0222 H        1 ZINC000000004076    0.4200
20     C20    -7.1365   -6.2386    6.8337 C.3      1 ZINC000000004076   -0.0500
21     C21    -6.4045   -4.0831    6.0856 C.3      1 ZINC000000004076   -0.0100
22     C22    -5.6524   -2.8103    6.4802 C.3      1 ZINC000000004076   -0.1400
23     C23    -2.2976   -1.3090    6.6087 C.ar     1 ZINC000000004076   -0.1000
24     C24    -1.5397   -1.6093    5.4756 C.ar     1 ZINC000000004076   -0.0700
25     H25     1.0048    1.8381    0.0023 H        1 ZINC000000004076    0.0700
26     H26    -0.5450    1.8219   -0.8730 H        1 ZINC000000004076    0.0800
27     H27    -0.5280    1.8123    0.9069 H        1 ZINC000000004076    0.0600
28     H28    -0.4183   -0.4908   -0.7241 H        1 ZINC000000004076    0.4200
29     H29    -0.2346    0.6433    2.8683 H        1 ZINC000000004076    0.1300
30     H30    -1.2733   -0.7662    2.5482 H        1 ZINC000000004076    0.1300
31     H31     0.3317   -2.2226    3.7530 H        1 ZINC000000004076    0.0900
32     H32     1.3704   -0.8131    4.0731 H        1 ZINC000000004076    0.0900
33     H33     0.6864    0.9092    5.6306 H        1 ZINC000000004076    0.1300
34     H34    -0.6298    1.4715    7.6244 H        1 ZINC000000004076    0.1300
35     H35    -2.8950    0.5357    9.1250 H        1 ZINC000000004076    0.4200
36     H36    -4.5752   -1.3749    9.0056 H        1 ZINC000000004076    0.1700
37     H37    -3.7162   -3.5455    5.8799 H        1 ZINC000000004076    0.0900
38     H38    -3.1146   -4.5183    8.0624 H        1 ZINC000000004076    0.1100
39     H39    -4.5778   -3.8186    8.7975 H        1 ZINC000000004076    0.0900
40     H40    -4.5259   -5.8493    6.5189 H        1 ZINC000000004076    0.1300
41     H41    -4.9271   -6.2045    8.2157 H        1 ZINC000000004076    0.1300
42     H42    -7.1012   -6.9559    7.6536 H        1 ZINC000000004076    0.1200
43     H43    -8.1707   -5.9472    6.6502 H        1 ZINC000000004076    0.1200
44     H44    -6.7224   -6.6942    5.9342 H        1 ZINC000000004076    0.1200
45     H45    -5.9433   -4.5169    5.1984 H        1 ZINC000000004076    0.1300
46     H46    -7.4446   -3.8381    5.8704 H        1 ZINC000000004076    0.1300
47     H47    -6.1130   -2.3755    7.3673 H        1 ZINC000000004076    0.0900
48     H48    -5.6936   -2.0940    5.6597 H        1 ZINC000000004076    0.1100
49     H49    -1.7903   -2.4659    4.8674 H        1 ZINC000000004076    0.1200
@<TRIPOS>BOND
1     1     2     1
2     1     25    1
3     1     26    1
4     1     27    1
5     2     3     am
6     2     28    1
7     3     4     2
8     3     5     2
9     3     6     1
10    6     7     1
11    6     29    1
12    6     30    1
13    7     8     1
14    7     31    1
15    7     32    1
16    8     24    ar
17    8     9     ar
18    9     10    ar
19    9     33    1
20    10    11    ar
21    10    34    1
22    11    23    ar
23    11    12    1
24    12    13    1
25    12    35    1
26    13    14    2
27    13    36    1
28    14    15    1
29    14    23    1
30    15    22    1
31    15    16    1
32    15    37    1
33    16    17    1
34    16    38    1
35    16    39    1
36    17    18    1
37    17    40    1
38    17    41    1
39    18    19    1
40    18    20    1
41    18    21    1
42    20    42    1
43    20    43    1
44    20    44    1
45    21    22    1
46    21    45    1
47    21    46    1
48    22    47    1
49    22    48    1
50    23    24    ar
51    24    49    1
@<TRIPOS>SUBSTRUCTURE
1   ZINC000000004076 1     RESIDUE    1   A     ZIN   1
