@<TRIPOS>MOLECULE
ZINC000002036848
47   49    0    0    0
SMALL
USER_CHARGES
NO_NAME
@<TRIPOS>ATOM
1 C1       -0.0184     1.5028     0.0103 C.3    1 <0>      -0.1200
2 C2        0.0021    -0.0041     0.0020 C.ar   1 <0>      -0.1100
3 C3        0.0056    -0.6708    -1.1853 C.ar   1 <0>      -0.0100
4 C4        0.0250    -2.0796    -1.2007 C.ar   1 <0>       0.0200
5 C5        0.0408    -2.7831     0.0248 C.ar   1 <0>       0.1900
6 C6        0.0369    -2.0751     1.2240 C.ar   1 <0>      -0.1600
7 C7        0.0230    -0.6983     1.2076 C.ar   1 <0>       0.0100
8 C8        0.0192     0.0635     2.5078 C.3    1 <0>      -0.1300
9 N9        0.0596    -4.1617     0.0361 N.pl3  1 <0>      -0.4400
10 C10       0.0755    -4.9004     1.3011 C.3    1 <0>       0.0600
11 C11      -1.3613    -5.1771     1.7482 C.3    1 <0>       0.0700
12 H12      -1.8706    -5.7694     0.9880 H      1 <0>       0.1200
13 O13      -2.0510    -3.9386     1.9284 O.3    1 <0>      -0.5200
14 C14      -1.3447    -5.9486     3.0693 C.3    1 <0>       0.0600
15 H15      -0.8353    -5.3563     3.8295 H      1 <0>       0.1100
16 O16      -0.6550    -7.1871     2.8891 O.3    1 <0>      -0.5500
17 C17      -2.7815    -6.2253     3.5164 C.3    1 <0>       0.0800
18 H18      -3.2908    -6.8176     2.7562 H      1 <0>       0.1100
19 O19      -3.4712    -4.9868     3.6966 O.3    1 <0>      -0.5300
20 C20      -2.7649    -6.9968     4.8376 C.3    1 <0>       0.0500
21 O21      -4.1006    -7.3566     5.1959 O.3    1 <0>      -0.5600
22 C22       0.0626    -4.8215    -1.1561 C.2    1 <0>       0.4500
23 N23       0.0790    -6.1417    -1.2328 N.2    1 <0>      -0.6000
24 C24       0.0807    -6.7709    -2.4053 C.2    1 <0>       0.6800
25 O25       0.0962    -7.9893    -2.4000 O.2    1 <0>      -0.5100
26 N26       0.0661    -6.1475    -3.5921 N.am   1 <0>      -0.6800
27 C27       0.0490    -4.7971    -3.6766 C.2    1 <0>       0.5900
28 O28       0.0361    -4.2292    -4.7515 O.2    1 <0>      -0.4600
29 C29       0.0460    -4.0411    -2.4044 C.2    1 <0>       0.0300
30 N30       0.0279    -2.7331    -2.3701 N.2    1 <0>      -0.3000
31 H31       1.0042     1.8801     0.0026 H      1 <0>       0.0800
32 H32      -0.5455     1.8639    -0.8728 H      1 <0>       0.0700
33 H33      -0.5286     1.8543     0.9071 H      1 <0>       0.0800
34 H34      -0.0069    -0.1202    -2.1144 H      1 <0>       0.1500
35 H35       0.0488    -2.6048     2.1650 H      1 <0>       0.1400
36 H36       1.0459     0.2576     2.8182 H      1 <0>       0.0900
37 H37      -0.5046     1.0099     2.3729 H      1 <0>       0.0900
38 H38      -0.4865    -0.5257     3.2728 H      1 <0>       0.0800
39 H39       0.6016    -5.8451     1.1636 H      1 <0>       0.1400
40 H40       0.5849    -4.3081     2.0613 H      1 <0>       0.1000
41 H41      -1.6522    -3.3593     2.5921 H      1 <0>       0.3700
42 H42      -1.0537    -7.7664     2.2254 H      1 <0>       0.3900
43 H43      -3.0724    -4.4075     4.3603 H      1 <0>       0.3700
44 H44      -2.1636    -7.8988     4.7241 H      1 <0>       0.0600
45 H45      -2.3354    -6.3699     5.6190 H      1 <0>       0.0500
46 H46      -4.1662    -7.8494     6.0253 H      1 <0>       0.3800
47 H47       0.0682    -6.6749    -4.4062 H      1 <0>       0.4300
@<TRIPOS>BOND
1    1    2 1
2    1   31 1
3    1   32 1
4    1   33 1
5    2    7 ar
6    2    3 ar
7    3    4 ar
8    3   34 1
9    4   30 1
10    4    5 ar
11    5    6 ar
12    5    9 1
13    6    7 ar
14    6   35 1
15    7    8 1
16    8   36 1
17    8   37 1
18    8   38 1
19    9   10 1
20    9   22 1
21   10   11 1
22   10   39 1
23   10   40 1
24   11   12 1
25   11   13 1
26   11   14 1
27   13   41 1
28   14   15 1
29   14   16 1
30   14   17 1
31   16   42 1
32   17   18 1
33   17   19 1
34   17   20 1
35   19   43 1
36   20   21 1
37   20   44 1
38   20   45 1
39   21   46 1
40   22   29 1
41   22   23 2
42   23   24 1
43   24   25 2
44   24   26 am
45   26   27 am
46   26   47 1
47   27   28 2
48   27   29 1
49   29   30 2
