@<TRIPOS>MOLECULE
ZINC000000001931
40    41    1     0     0
SMALL
USER_CHARGES
@<TRIPOS>ATOM
1      C1     -0.0178    1.4648    0.0101 C.3      1 ZINC000000001931    0.0200
2      N2      0.0021   -0.0041    0.0020 N.3      1 ZINC000000001931   -0.5400
3      C3      0.7062   -0.5275    1.1802 C.3      1 ZINC000000001931    0.0200
4      C4     -1.3597   -0.5486   -0.0825 C.3      1 ZINC000000001931    0.0500
5      C5     -1.9710   -0.1854   -1.4372 C.3      1 ZINC000000001931    0.0600
6      O6     -1.2392   -0.8339   -2.4793 O.3      1 ZINC000000001931   -0.2900
7      C7     -1.6557   -0.6148   -3.7542 C.ar     1 ZINC000000001931    0.1400
8      C8     -2.7425    0.2120   -3.9976 C.ar     1 ZINC000000001931   -0.2100
9      C9     -3.1637    0.4336   -5.2947 C.ar     1 ZINC000000001931   -0.0800
10     C10    -2.5031   -0.1682   -6.3495 C.ar     1 ZINC000000001931   -0.1600
11     C11    -1.4196   -0.9933   -6.1095 C.ar     1 ZINC000000001931   -0.0800
12     C12    -0.9908   -1.2131   -4.8150 C.ar     1 ZINC000000001931   -0.1100
13     C13     0.1903   -2.1119   -4.5541 C.3      1 ZINC000000001931   -0.0300
14     C14    -0.2965   -3.5046   -4.2468 C.ar     1 ZINC000000001931   -0.0700
15     C15    -0.5738   -3.8677   -2.9421 C.ar     1 ZINC000000001931   -0.1000
16     C16    -1.0203   -5.1452   -2.6601 C.ar     1 ZINC000000001931   -0.1200
17     C17    -1.1899   -6.0595   -3.6829 C.ar     1 ZINC000000001931   -0.1300
18     C18    -0.9135   -5.6962   -4.9877 C.ar     1 ZINC000000001931   -0.1200
19     C19    -0.4711   -4.4174   -5.2702 C.ar     1 ZINC000000001931   -0.1200
20     H20     1.0047    1.8421    0.0024 H        1 ZINC000000001931    0.0700
21     H21    -0.5450    1.8259   -0.8730 H        1 ZINC000000001931    0.0700
22     H22    -0.5280    1.8163    0.9069 H        1 ZINC000000001931    0.0300
23     H23     0.1617   -0.2488    2.0824 H        1 ZINC000000001931    0.0300
24     H24     0.7676   -1.6137    1.1140 H        1 ZINC000000001931    0.0700
25     H25     1.7116   -0.1084    1.2186 H        1 ZINC000000001931    0.0700
26     H26    -1.3244   -1.6331    0.0212 H        1 ZINC000000001931    0.0900
27     H27    -1.9698   -0.1268    0.7163 H        1 ZINC000000001931    0.0600
28     H28    -3.0106   -0.5117   -1.4659 H        1 ZINC000000001931    0.0700
29     H29    -1.9251    0.8944   -1.5788 H        1 ZINC000000001931    0.0600
30     H30    -3.2593    0.6819   -3.1738 H        1 ZINC000000001931    0.1200
31     H31    -4.0098    1.0773   -5.4847 H        1 ZINC000000001931    0.1200
32     H32    -2.8341    0.0059   -7.3627 H        1 ZINC000000001931    0.1200
33     H33    -0.9054   -1.4626   -6.9352 H        1 ZINC000000001931    0.1300
34     H34     0.8297   -2.1370   -5.4366 H        1 ZINC000000001931    0.0800
35     H35     0.7573   -1.7296   -3.7054 H        1 ZINC000000001931    0.0900
36     H36    -0.4412   -3.1533   -2.1430 H        1 ZINC000000001931    0.1300
37     H37    -1.2362   -5.4290   -1.6407 H        1 ZINC000000001931    0.1200
38     H38    -1.5381   -7.0578   -3.4626 H        1 ZINC000000001931    0.1200
39     H39    -1.0457   -6.4106   -5.7868 H        1 ZINC000000001931    0.1200
40     H40    -0.2551   -4.1335   -6.2896 H        1 ZINC000000001931    0.1200
@<TRIPOS>BOND
1     1     2     1
2     1     20    1
3     1     21    1
4     1     22    1
5     2     3     1
6     2     4     1
7     3     23    1
8     3     24    1
9     3     25    1
10    4     5     1
11    4     26    1
12    4     27    1
13    5     6     1
14    5     28    1
15    5     29    1
16    6     7     1
17    7     12    ar
18    7     8     ar
19    8     9     ar
20    8     30    1
21    9     10    ar
22    9     31    1
23    10    11    ar
24    10    32    1
25    11    12    ar
26    11    33    1
27    12    13    1
28    13    14    1
29    13    34    1
30    13    35    1
31    14    19    ar
32    14    15    ar
33    15    16    ar
34    15    36    1
35    16    17    ar
36    16    37    1
37    17    18    ar
38    17    38    1
39    18    19    ar
40    18    39    1
41    19    40    1
@<TRIPOS>SUBSTRUCTURE
1   ZINC000000001931 1     RESIDUE    1   A     ZIN   1
