@<TRIPOS>MOLECULE
ZINC000052716421
50    53    1     0     0
SMALL
USER_CHARGES
@<TRIPOS>ATOM
1      O1      0.0021   -0.0041    0.0020 O.2      1 ZINC000052716421   -0.5500
2      C2     -0.0144    1.2127    0.0087 C.2      1 ZINC000052716421    0.6900
3      N3     -1.1255    1.9729    0.0293 N.am     1 ZINC000052716421   -0.6400
4      C4     -0.7412    3.3117    0.0312 C.ar     1 ZINC000052716421    0.1000
5      C5     -1.4477    4.5042    0.0478 C.ar     1 ZINC000052716421   -0.1000
6      C6     -0.7673    5.7066    0.0442 C.ar     1 ZINC000052716421   -0.1000
7      C7      0.6164    5.7254    0.0235 C.ar     1 ZINC000052716421   -0.1000
8      C8      1.3291    4.5421    0.0064 C.ar     1 ZINC000052716421   -0.1100
9      C9      0.6552    3.3307    0.0108 C.ar     1 ZINC000052716421    0.0700
10     N10     1.0757    2.0029    0.0025 N.am     1 ZINC000052716421   -0.5400
11     C11     2.4669    1.5442   -0.0135 C.3      1 ZINC000052716421    0.1100
12     C12     2.9665    1.3804    1.4234 C.3      1 ZINC000052716421   -0.0300
13     N13     4.3615    0.9205    1.4073 N.4      1 ZINC000052716421   -0.3800
14     H14     4.4310    0.0767    0.8585 H        1 ZINC000052716421    0.4200
15     C15     4.8028    0.6481    2.7816 C.3      1 ZINC000052716421    0.0000
16     C16     6.2500    0.1510    2.7638 C.3      1 ZINC000052716421    0.0200
17     N17     7.1085    1.1732    2.1488 N.3      1 ZINC000052716421   -0.4900
18     C18     8.4478    0.7770    2.1636 C.ar     1 ZINC000052716421    0.0900
19     C19     8.8048   -0.4493    2.7094 C.ar     1 ZINC000052716421   -0.1300
20     C20    10.1301   -0.8383    2.7220 C.ar     1 ZINC000052716421   -0.0900
21     C21    11.1008   -0.0084    2.1921 C.ar     1 ZINC000052716421   -0.0800
22     C22    10.7488    1.2135    1.6482 C.ar     1 ZINC000052716421   -0.1500
23     C23    11.8103    2.1147    1.0718 C.3      1 ZINC000052716421    0.5100
24     F24    13.0619    1.5031    1.2013 F        1 ZINC000052716421   -0.1700
25     F25    11.5417    2.3452   -0.2816 F        1 ZINC000052716421   -0.1700
26     F26    11.8128    3.3323    1.7608 F        1 ZINC000052716421   -0.1700
27     C27     9.4251    1.6060    1.6272 C.ar     1 ZINC000052716421   -0.0800
28     C28     6.6635    1.4745    0.7808 C.3      1 ZINC000052716421    0.0200
29     C29     5.2129    1.9608    0.8153 C.3      1 ZINC000052716421   -0.0100
30     H30    -2.0380    1.6442    0.0403 H        1 ZINC000052716421    0.4400
31     H31    -2.5275    4.4934    0.0632 H        1 ZINC000052716421    0.1400
32     H32    -1.3176    6.6358    0.0572 H        1 ZINC000052716421    0.1400
33     H33     1.1413    6.6693    0.0205 H        1 ZINC000052716421    0.1400
34     H34     2.4088    4.5608   -0.0104 H        1 ZINC000052716421    0.1300
35     H35     2.5279    0.5867   -0.5307 H        1 ZINC000052716421    0.1200
36     H36     3.0852    2.2772   -0.5318 H        1 ZINC000052716421    0.1100
37     H37     2.9055    2.3379    1.9406 H        1 ZINC000052716421    0.1400
38     H38     2.3482    0.6475    1.9417 H        1 ZINC000052716421    0.1400
39     H39     4.7400    1.5626    3.3714 H        1 ZINC000052716421    0.1400
40     H40     4.1621   -0.1145    3.2244 H        1 ZINC000052716421    0.1400
41     H41     6.5825   -0.0370    3.7846 H        1 ZINC000052716421    0.1300
42     H42     6.3108   -0.7709    2.1854 H        1 ZINC000052716421    0.0800
43     H43     8.0471   -1.0978    3.1238 H        1 ZINC000052716421    0.1400
44     H44    10.4085   -1.7915    3.1465 H        1 ZINC000052716421    0.1400
45     H45    12.1364   -0.3150    2.2032 H        1 ZINC000052716421    0.1500
46     H46     9.1509    2.5604    1.2024 H        1 ZINC000052716421    0.1400
47     H47     7.2977    2.2520    0.3550 H        1 ZINC000052716421    0.1300
48     H48     6.7311    0.5744    0.1698 H        1 ZINC000052716421    0.0700
49     H49     4.8761    2.1714   -0.1997 H        1 ZINC000052716421    0.1400
50     H50     5.1482    2.8686    1.4152 H        1 ZINC000052716421    0.1400
@<TRIPOS>BOND
1     1     2     2
2     2     10    am
3     2     3     am
4     3     4     1
5     3     30    1
6     4     9     ar
7     4     5     ar
8     5     6     ar
9     5     31    1
10    6     7     ar
11    6     32    1
12    7     8     ar
13    7     33    1
14    8     9     ar
15    8     34    1
16    9     10    1
17    10    11    1
18    11    12    1
19    11    35    1
20    11    36    1
21    12    13    1
22    12    37    1
23    12    38    1
24    13    14    1
25    13    29    1
26    13    15    1
27    15    16    1
28    15    39    1
29    15    40    1
30    16    17    1
31    16    41    1
32    16    42    1
33    17    18    1
34    17    28    1
35    18    27    ar
36    18    19    ar
37    19    20    ar
38    19    43    1
39    20    21    ar
40    20    44    1
41    21    22    ar
42    21    45    1
43    22    23    1
44    22    27    ar
45    23    24    1
46    23    25    1
47    23    26    1
48    27    46    1
49    28    29    1
50    28    47    1
51    28    48    1
52    29    49    1
53    29    50    1
@<TRIPOS>SUBSTRUCTURE
1   ZINC000052716421 1     RESIDUE    1   A     ZIN   1
