@<TRIPOS>MOLECULE
ZINC000000601229
51   54    0    0    0
SMALL
USER_CHARGES
NO_NAME
@<TRIPOS>ATOM
1 C1       -0.0178     1.4648     0.0101 C.3    1 <0>       0.0300
2 N2        0.0021    -0.0041     0.0020 N.3    1 <0>      -0.5600
3 C3       -1.3543    -0.5505    -0.2011 C.3    1 <0>       0.0600
4 C4       -1.2230    -1.8755    -0.9093 C.3    1 <0>      -0.1100
5 C5       -1.2199    -3.0508     0.0831 C.3    1 <0>      -0.1200
6 C6       -0.3859    -2.7404     1.3421 C.3    1 <0>       0.1600
7 H7       -0.9779    -2.1164     2.0117 H      1 <0>       0.1000
8 N8       -0.0707    -3.9985     2.0233 N.am   1 <0>      -0.4300
9 N9        0.6632    -4.9722     1.3455 N.2    1 <0>      -0.2100
10 C10       0.9813    -6.1121     1.8827 C.2    1 <0>       0.1300
11 C11       1.7770    -7.1204     1.0945 C.3    1 <0>      -0.0200
12 C12       2.0736    -6.5665    -0.2752 C.ar   1 <0>      -0.0700
13 C13       1.1903    -6.7864    -1.3156 C.ar   1 <0>      -0.0900
14 C14       1.4619    -6.2785    -2.5721 C.ar   1 <0>      -0.1100
15 C15       2.6180    -5.5500    -2.7884 C.ar   1 <0>      -0.0300
16 Cl16      2.9595    -4.9113    -4.3661 Cl     1 <0>      -0.0700
17 C17       3.5016    -5.3302    -1.7467 C.ar   1 <0>      -0.1100
18 C18       3.2262    -5.8338    -0.4894 C.ar   1 <0>      -0.0900
19 C19       0.5675    -6.4164     3.2526 C.ar   1 <0>      -0.0600
20 C20       0.8879    -7.6285     3.8664 C.ar   1 <0>      -0.1000
21 C21       0.4741    -7.8663     5.1582 C.ar   1 <0>      -0.0900
22 C22      -0.2577    -6.9146     5.8562 C.ar   1 <0>      -0.1100
23 C23      -0.5857    -5.7111     5.2711 C.ar   1 <0>      -0.0500
24 C24      -0.1776    -5.4485     3.9646 C.ar   1 <0>      -0.1300
25 C25      -0.4934    -4.1823     3.2914 C.2    1 <0>       0.5300
26 O26      -1.1292    -3.3162     3.8653 O.2    1 <0>      -0.5200
27 C27       0.9024    -2.0258     1.0223 C.3    1 <0>      -0.1200
28 C28       0.6720    -0.5021     1.1231 C.3    1 <0>       0.0800
29 H29       1.0047     1.8421     0.0024 H      1 <0>       0.0700
30 H30      -0.5450     1.8259    -0.8730 H      1 <0>       0.0700
31 H31      -0.5280     1.8163     0.9069 H      1 <0>       0.0300
32 H32      -1.8413    -0.6950     0.7633 H      1 <0>       0.0400
33 H33      -1.9406     0.1367    -0.8111 H      1 <0>       0.0800
34 H34      -2.0586    -1.9945    -1.5991 H      1 <0>       0.0700
35 H35      -0.2917    -1.8855    -1.4755 H      1 <0>       0.0800
36 H36      -2.2460    -3.2656     0.3815 H      1 <0>       0.0600
37 H37      -0.8043    -3.9298    -0.4097 H      1 <0>       0.0800
38 H38       2.7130    -7.3297     1.6124 H      1 <0>       0.1100
39 H39       1.2018    -8.0413     0.9973 H      1 <0>       0.1100
40 H40       0.2881    -7.3554    -1.1467 H      1 <0>       0.1300
41 H41       0.7719    -6.4507    -3.3849 H      1 <0>       0.1300
42 H42       4.4044    -4.7619    -1.9151 H      1 <0>       0.1300
43 H43       3.9157    -5.6620     0.3239 H      1 <0>       0.1300
44 H44       1.4563    -8.3751     3.3316 H      1 <0>       0.1400
45 H45       0.7212    -8.8039     5.6338 H      1 <0>       0.1400
46 H46      -0.5734    -7.1201     6.8684 H      1 <0>       0.1400
47 H47      -1.1548    -4.9763     5.8211 H      1 <0>       0.1400
48 H48       1.6721    -2.3261     1.7334 H      1 <0>       0.0700
49 H49       1.2193    -2.2805     0.0109 H      1 <0>       0.0900
50 H50       1.6365    -0.0021     1.2119 H      1 <0>       0.0800
51 H51       0.0803    -0.2904     2.0137 H      1 <0>       0.0200
@<TRIPOS>BOND
1    1    2 1
2    1   29 1
3    1   30 1
4    1   31 1
5    2   28 1
6    2    3 1
7    3    4 1
8    3   32 1
9    3   33 1
10    4    5 1
11    4   34 1
12    4   35 1
13    5    6 1
14    5   36 1
15    5   37 1
16    6    7 1
17    6    8 1
18    6   27 1
19    8   25 am
20    8    9 1
21    9   10 2
22   10   11 1
23   10   19 1
24   11   12 1
25   11   38 1
26   11   39 1
27   12   18 ar
28   12   13 ar
29   13   14 ar
30   13   40 1
31   14   15 ar
32   14   41 1
33   15   16 1
34   15   17 ar
35   17   18 ar
36   17   42 1
37   18   43 1
38   19   24 ar
39   19   20 ar
40   20   21 ar
41   20   44 1
42   21   22 ar
43   21   45 1
44   22   23 ar
45   22   46 1
46   23   24 ar
47   23   47 1
48   24   25 1
49   25   26 2
50   27   28 1
51   27   48 1
52   27   49 1
53   28   50 1
54   28   51 1
