@<TRIPOS>MOLECULE
ZINC000001530761
57    59    1     0     0
SMALL
USER_CHARGES
@<TRIPOS>ATOM
1      C1      0.4190    0.4911   -1.4782 C.3      1 ZINC000001530761   -0.2200
2      C2     -0.0374    0.4544   -0.0184 C.3      1 ZINC000001530761    0.0300
3      C3     -0.1362    1.8826    0.5212 C.3      1 ZINC000001530761   -0.2400
4      N4     -1.3530   -0.1935    0.0672 N.4      1 ZINC000001530761   -0.2600
5      C5     -1.1925   -1.6475   -0.0678 C.3      1 ZINC000001530761   -0.0600
6      C6     -1.9661    0.1128    1.3665 C.3      1 ZINC000001530761   -0.0100
7      C7     -1.1455   -0.5356    2.4833 C.3      1 ZINC000001530761    0.0300
8      O8      0.1555    0.1044    2.5620 O.3      1 ZINC000001530761   -0.3600
9      C9      1.0435   -0.4235    3.4190 C.2      1 ZINC000001530761    0.4700
10     O10     0.7436   -1.3885    4.0815 O.2      1 ZINC000001530761   -0.4700
11     C11     2.4144    0.1873    3.5550 C.3      1 ZINC000001530761    0.0300
12     C12     2.2773    1.6251    3.9758 C.ar     1 ZINC000001530761   -0.1700
13     C13     1.9144    2.5743    3.0369 C.ar     1 ZINC000001530761   -0.0800
14     C14     1.7815    3.9002    3.4031 C.ar     1 ZINC000001530761   -0.1400
15     C15     2.0117    4.2829    4.7115 C.ar     1 ZINC000001530761   -0.0700
16     C16     2.3749    3.3404    5.6524 C.ar     1 ZINC000001530761   -0.1300
17     C17     2.5093    2.0058    5.2875 C.ar     1 ZINC000001530761    0.1300
18     O18     2.8657    1.0966    6.2260 O.3      1 ZINC000001530761   -0.2400
19     C19     3.3897   -0.0958    5.8543 C.ar     1 ZINC000001530761    0.1300
20     C20     4.1229   -0.8321    6.7778 C.ar     1 ZINC000001530761   -0.1300
21     C21     4.6649   -2.0501    6.4195 C.ar     1 ZINC000001530761   -0.0700
22     C22     4.4787   -2.5399    5.1401 C.ar     1 ZINC000001530761   -0.1400
23     C23     3.7506   -1.8104    4.2195 C.ar     1 ZINC000001530761   -0.0700
24     C24     3.2046   -0.5891    4.5729 C.ar     1 ZINC000001530761   -0.1500
25     C25    -2.2160    0.3062   -1.0114 C.3      1 ZINC000001530761    0.0300
26     C26    -1.9856    1.8076   -1.1947 C.3      1 ZINC000001530761   -0.2200
27     C27    -1.8798   -0.4241   -2.3132 C.3      1 ZINC000001530761   -0.2200
28     H28     1.3689    1.0210   -1.5487 H        1 ZINC000001530761    0.1000
29     H29     0.5430   -0.5275   -1.8459 H        1 ZINC000001530761    0.0800
30     H30    -0.3298    1.0060   -2.0801 H        1 ZINC000001530761    0.1100
31     H31     0.6841   -0.1086    0.5738 H        1 ZINC000001530761    0.1300
32     H32    -0.4826    1.8576    1.5544 H        1 ZINC000001530761    0.0900
33     H33     0.8448    2.3559    0.4783 H        1 ZINC000001530761    0.1000
34     H34    -0.8411    2.4520   -0.0847 H        1 ZINC000001530761    0.1200
35     H35    -0.5522   -2.0183    0.7325 H        1 ZINC000001530761    0.1200
36     H36    -2.1687   -2.1282   -0.0043 H        1 ZINC000001530761    0.1200
37     H37    -0.7376   -1.8748   -1.0319 H        1 ZINC000001530761    0.1300
38     H38    -1.9883    1.1928    1.5122 H        1 ZINC000001530761    0.1500
39     H39    -2.9834   -0.2779    1.3894 H        1 ZINC000001530761    0.1500
40     H40    -1.6669   -0.4169    3.4331 H        1 ZINC000001530761    0.1200
41     H41    -1.0161   -1.5966    2.2699 H        1 ZINC000001530761    0.1000
42     H42     2.9249    0.1421    2.5930 H        1 ZINC000001530761    0.1300
43     H43     1.7346    2.2780    2.0140 H        1 ZINC000001530761    0.1300
44     H44     1.4981    4.6377    2.6668 H        1 ZINC000001530761    0.1300
45     H45     1.9077    5.3192    4.9973 H        1 ZINC000001530761    0.1400
46     H46     2.5551    3.6405    6.6741 H        1 ZINC000001530761    0.1400
47     H47     4.2692   -0.4502    7.7774 H        1 ZINC000001530761    0.1400
48     H48     5.2339   -2.6206    7.1387 H        1 ZINC000001530761    0.1400
49     H49     4.9029   -3.4927    4.8599 H        1 ZINC000001530761    0.1300
50     H50     3.6074   -2.1948    3.2205 H        1 ZINC000001530761    0.1300
51     H51    -3.2599    0.1275   -0.7538 H        1 ZINC000001530761    0.1300
52     H52    -2.2583    2.3315   -0.2786 H        1 ZINC000001530761    0.0900
53     H53    -0.9344    1.9893   -1.4181 H        1 ZINC000001530761    0.1200
54     H54    -2.6002    2.1716   -2.0181 H        1 ZINC000001530761    0.1000
55     H55    -2.1069   -1.4845   -2.2040 H        1 ZINC000001530761    0.0800
56     H56    -2.4732   -0.0074   -3.1272 H        1 ZINC000001530761    0.1000
57     H57    -0.8200   -0.3004   -2.5359 H        1 ZINC000001530761    0.1100
@<TRIPOS>BOND
1     1     2     1
2     1     28    1
3     1     29    1
4     1     30    1
5     2     3     1
6     2     4     1
7     2     31    1
8     3     32    1
9     3     33    1
10    3     34    1
11    4     5     1
12    4     6     1
13    4     25    1
14    5     35    1
15    5     36    1
16    5     37    1
17    6     7     1
18    6     38    1
19    6     39    1
20    7     8     1
21    7     40    1
22    7     41    1
23    8     9     1
24    9     10    2
25    9     11    1
26    11    24    1
27    11    12    1
28    11    42    1
29    12    17    ar
30    12    13    ar
31    13    14    ar
32    13    43    1
33    14    15    ar
34    14    44    1
35    15    16    ar
36    15    45    1
37    16    17    ar
38    16    46    1
39    17    18    1
40    18    19    1
41    19    24    ar
42    19    20    ar
43    20    21    ar
44    20    47    1
45    21    22    ar
46    21    48    1
47    22    23    ar
48    22    49    1
49    23    24    ar
50    23    50    1
51    25    26    1
52    25    27    1
53    25    51    1
54    26    52    1
55    26    53    1
56    26    54    1
57    27    55    1
58    27    56    1
59    27    57    1
@<TRIPOS>SUBSTRUCTURE
1   ZINC000001530761 1     RESIDUE    1   A     ZIN   1
