@<TRIPOS>MOLECULE
ZINC000000001728
31    32    1     0     0
SMALL
USER_CHARGES
@<TRIPOS>ATOM
1      C1     -0.0519    1.5411   -0.0947 C.3      1 ZINC000000001728   -0.1500
2      C2     -0.0836    0.0140   -0.0062 C.3      1 ZINC000000001728   -0.0600
3      C3      0.7632   -0.4457    1.1823 C.3      1 ZINC000000001728   -0.1300
4      C4     -1.5054   -0.4490    0.1810 C.2      1 ZINC000000001728    0.4100
5      O5     -1.8015   -1.1238    1.1439 O.2      1 ZINC000000001728   -0.4300
6      C6     -2.5346   -0.0822   -0.8049 C.ar     1 ZINC000000001728   -0.2300
7      C7     -3.8846   -0.3837   -0.5732 C.ar     1 ZINC000000001728   -0.0200
8      C8     -4.8116   -0.0169   -1.5321 C.ar     1 ZINC000000001728   -0.1800
9      C9     -4.3823    0.6291   -2.6777 C.ar     1 ZINC000000001728    0.1300
10     N10    -3.1052    0.9003   -2.8705 N.ar     1 ZINC000000001728   -0.4900
11     C11    -2.1845    0.5784   -1.9867 C.ar     1 ZINC000000001728    0.1500
12     C12     0.4731   -0.5744   -1.2770 C.ar     1 ZINC000000001728   -0.1300
13     C13     1.7180   -0.1833   -1.7452 C.ar     1 ZINC000000001728   -0.0600
14     C14     2.1903   -0.7517   -2.9186 C.ar     1 ZINC000000001728   -0.1700
15     C15     1.4099   -1.6824   -3.5776 C.ar     1 ZINC000000001728    0.1000
16     N16     0.2299   -2.0309   -3.1028 N.ar     1 ZINC000000001728   -0.4700
17     C17    -0.2486   -1.5152   -1.9875 C.ar     1 ZINC000000001728    0.1000
18     H18     0.9829    1.8815   -0.1318 H        1 ZINC000000001728    0.0800
19     H19    -0.5731    1.8637   -0.9960 H        1 ZINC000000001728    0.0700
20     H20    -0.5430    1.9660    0.7808 H        1 ZINC000000001728    0.0700
21     H21     0.3117   -0.0910    2.1089 H        1 ZINC000000001728    0.0700
22     H22     0.8108   -1.5346    1.1949 H        1 ZINC000000001728    0.0600
23     H23     1.7702   -0.0390    1.0899 H        1 ZINC000000001728    0.0700
24     H24    -4.1923   -0.8893    0.3302 H        1 ZINC000000001728    0.1500
25     H25    -5.8599   -0.2330   -1.3881 H        1 ZINC000000001728    0.1500
26     H26    -5.1048    0.9162   -3.4274 H        1 ZINC000000001728    0.1600
27     H27    -1.1492    0.8172   -2.1804 H        1 ZINC000000001728    0.1700
28     H28     2.3059    0.5469   -1.2089 H        1 ZINC000000001728    0.1400
29     H29     3.1556   -0.4703   -3.3126 H        1 ZINC000000001728    0.1400
30     H30     1.7704   -2.1295   -4.4922 H        1 ZINC000000001728    0.1600
31     H31    -1.2193   -1.8250   -1.6296 H        1 ZINC000000001728    0.1500
@<TRIPOS>BOND
1     1     2     1
2     1     18    1
3     1     19    1
4     1     20    1
5     2     3     1
6     2     4     1
7     2     12    1
8     3     21    1
9     3     22    1
10    3     23    1
11    4     5     2
12    4     6     1
13    6     11    ar
14    6     7     ar
15    7     8     ar
16    7     24    1
17    8     9     ar
18    8     25    1
19    9     10    ar
20    9     26    1
21    10    11    ar
22    11    27    1
23    12    17    ar
24    12    13    ar
25    13    14    ar
26    13    28    1
27    14    15    ar
28    14    29    1
29    15    16    ar
30    15    30    1
31    16    17    ar
32    17    31    1
@<TRIPOS>SUBSTRUCTURE
1   ZINC000000001728 1     RESIDUE    1   A     ZIN   1
