@<TRIPOS>MOLECULE
ZINC000006845860
53   52    0    0    0
SMALL
USER_CHARGES
NO_NAME
@<TRIPOS>ATOM
1 C1        0.1245     1.2913     1.2265 C.3    1 <0>      -0.1500
2 C2        0.1194    -0.2123     0.9436 C.3    1 <0>      -0.1300
3 C3       -1.3223    -0.7245     0.9342 C.3    1 <0>      -0.1200
4 C4       -1.3274    -2.2282     0.6513 C.3    1 <0>      -0.1200
5 C5       -2.7691    -2.7404     0.6419 C.3    1 <0>      -0.1200
6 C6       -2.7742    -4.2440     0.3590 C.3    1 <0>      -0.1200
7 C7       -4.2159    -4.7563     0.3496 C.3    1 <0>      -0.1100
8 C8       -4.2210    -6.2599     0.0667 C.3    1 <0>      -0.1000
9 C9       -5.6410    -6.7645     0.0574 C.2    1 <0>      -0.1700
10 C10      -6.0832    -7.4576    -0.9625 C.2    1 <0>      -0.1500
11 C11      -5.1311    -7.8959    -2.0452 C.3    1 <0>      -0.1000
12 C12      -5.2475    -9.4083    -2.2451 C.3    1 <0>      -0.1100
13 C13      -4.2809    -9.8534    -3.3444 C.3    1 <0>      -0.1200
14 C14      -4.3973   -11.3658    -3.5443 C.3    1 <0>      -0.1200
15 C15      -3.4307   -11.8109    -4.6435 C.3    1 <0>      -0.1200
16 C16      -3.5471   -13.3233    -4.8434 C.3    1 <0>      -0.0900
17 C17      -2.5805   -13.7684    -5.9427 C.3    1 <0>      -0.1800
18 C18      -2.6952   -15.2580    -6.1396 C.2    1 <0>       0.4900
19 O19      -3.4776   -15.9039    -5.4634 O.co2  1 <0>      -0.7000
20 O20      -2.0056   -15.8174    -6.9751 O.co2  1 <0>      -0.7100
21 H21       1.1516     1.6563     1.2332 H      1 <0>       0.0500
22 H22      -0.4399     1.8089     0.4508 H      1 <0>       0.0500
23 H23      -0.3345     1.4800     2.1969 H      1 <0>       0.0500
24 H24       0.5784    -0.4010    -0.0269 H      1 <0>       0.0600
25 H25       0.6838    -0.7299     1.7192 H      1 <0>       0.0600
26 H26      -1.7813    -0.5358     1.9046 H      1 <0>       0.0600
27 H27      -1.8867    -0.2070     0.1585 H      1 <0>       0.0600
28 H28      -0.8684    -2.4169    -0.3192 H      1 <0>       0.0600
29 H29      -0.7630    -2.7457     1.4270 H      1 <0>       0.0600
30 H30      -3.2281    -2.5517     1.6123 H      1 <0>       0.0600
31 H31      -3.3335    -2.2229    -0.1338 H      1 <0>       0.0600
32 H32      -2.3152    -4.4327    -0.6115 H      1 <0>       0.0600
33 H33      -2.2098    -4.7616     1.1347 H      1 <0>       0.0600
34 H34      -4.6749    -4.5676     1.3201 H      1 <0>       0.0600
35 H35      -4.7803    -4.2387    -0.4261 H      1 <0>       0.0600
36 H36      -3.7620    -6.4486    -0.9038 H      1 <0>       0.0800
37 H37      -3.6566    -6.7775     0.8424 H      1 <0>       0.0700
38 H38      -6.2941    -6.5546     0.8916 H      1 <0>       0.1100
39 H39      -7.1301    -7.7148    -1.0273 H      1 <0>       0.1100
40 H40      -5.3798    -7.3862    -2.9760 H      1 <0>       0.0700
41 H41      -4.1107    -7.6453    -1.7551 H      1 <0>       0.0800
42 H42      -4.9988    -9.9181    -1.3143 H      1 <0>       0.0600
43 H43      -6.2679    -9.6590    -2.5352 H      1 <0>       0.0600
44 H44      -4.5296    -9.3437    -4.2752 H      1 <0>       0.0600
45 H45      -3.2605    -9.6028    -3.0543 H      1 <0>       0.0600
46 H46      -4.1486   -11.8756    -2.6135 H      1 <0>       0.0600
47 H47      -5.4177   -11.6165    -3.8344 H      1 <0>       0.0600
48 H48      -3.6794   -11.3012    -5.5743 H      1 <0>       0.0500
49 H49      -2.4103   -11.5602    -4.3534 H      1 <0>       0.0500
50 H50      -3.2984   -13.8330    -3.9126 H      1 <0>       0.0600
51 H51      -4.5675   -13.5740    -5.1335 H      1 <0>       0.0600
52 H52      -2.8292   -13.2586    -6.8735 H      1 <0>       0.0500
53 H53      -1.5601   -13.5177    -5.6526 H      1 <0>       0.0500
@<TRIPOS>BOND
1    1    2 1
2    1   21 1
3    1   22 1
4    1   23 1
5    2    3 1
6    2   24 1
7    2   25 1
8    3    4 1
9    3   26 1
10    3   27 1
11    4    5 1
12    4   28 1
13    4   29 1
14    5    6 1
15    5   30 1
16    5   31 1
17    6    7 1
18    6   32 1
19    6   33 1
20    7    8 1
21    7   34 1
22    7   35 1
23    8    9 1
24    8   36 1
25    8   37 1
26    9   10 2
27    9   38 1
28   10   11 1
29   10   39 1
30   11   12 1
31   11   40 1
32   11   41 1
33   12   13 1
34   12   42 1
35   12   43 1
36   13   14 1
37   13   44 1
38   13   45 1
39   14   15 1
40   14   46 1
41   14   47 1
42   15   16 1
43   15   48 1
44   15   49 1
45   16   17 1
46   16   50 1
47   16   51 1
48   17   18 1
49   17   52 1
50   17   53 1
51   18   19 ar
52   18   20 ar
