@<TRIPOS>MOLECULE
ZINC000000000853
45    46    1     0     0
SMALL
USER_CHARGES
@<TRIPOS>ATOM
1      C1     -0.2398    1.3454    0.0230 C.3      1 ZINC000000000853    0.0200
2      O2     -0.1361   -0.0798    0.0047 O.3      1 ZINC000000000853   -0.3100
3      C3      0.4905   -0.6663    1.0584 C.ar     1 ZINC000000000853    0.1500
4      C4      0.9900    0.1132    2.0913 C.ar     1 ZINC000000000853   -0.2000
5      C5      1.6262   -0.4856    3.1617 C.ar     1 ZINC000000000853   -0.0700
6      C6      1.7656   -1.8604    3.2035 C.ar     1 ZINC000000000853   -0.1700
7      C7      1.2689   -2.6397    2.1747 C.ar     1 ZINC000000000853   -0.0800
8      C8      1.4230   -4.1380    2.2233 C.3      1 ZINC000000000853    0.1900
9      O9      0.3299   -4.7518    1.5375 O.3      1 ZINC000000000853   -0.5500
10     C10     2.7371   -4.5376    1.5492 C.3      1 ZINC000000000853   -0.1400
11     C11     2.8935   -6.0588    1.5985 C.3      1 ZINC000000000853   -0.1200
12     C12     2.9064   -6.5232    3.0562 C.3      1 ZINC000000000853   -0.1200
13     C13     1.5923   -6.1236    3.7304 C.3      1 ZINC000000000853   -0.1200
14     C14     1.4358   -4.6024    3.6811 C.3      1 ZINC000000000853   -0.0900
15     H15     2.2697   -4.1342    4.2042 H        1 ZINC000000000853    0.1100
16     C16     0.1218   -4.2027    4.3552 C.3      1 ZINC000000000853   -0.0100
17     N17     0.1835   -4.5363    5.7845 N.4      1 ZINC000000000853   -0.3900
18     H18     0.4267   -5.5096    5.8925 H        1 ZINC000000000853    0.4200
19     C19     1.2003   -3.7020    6.4387 C.3      1 ZINC000000000853   -0.0600
20     C20    -1.1258   -4.2873    6.4024 C.3      1 ZINC000000000853   -0.0500
21     C21     0.6266   -2.0464    1.1055 C.ar     1 ZINC000000000853   -0.1400
22     H22     0.7585    1.7820    0.0501 H        1 ZINC000000000853    0.0600
23     H23    -0.7600    1.6833   -0.8733 H        1 ZINC000000000853    0.1100
24     H24    -0.7972    1.6578    0.9061 H        1 ZINC000000000853    0.0600
25     H25     0.8819    1.1873    2.0588 H        1 ZINC000000000853    0.1300
26     H26     2.0152    0.1209    3.9662 H        1 ZINC000000000853    0.1300
27     H27     2.2635   -2.3265    4.0409 H        1 ZINC000000000853    0.1200
28     H28     0.2601   -4.5022    0.6059 H        1 ZINC000000000853    0.3900
29     H29     2.7279   -4.2068    0.5106 H        1 ZINC000000000853    0.0800
30     H30     3.5709   -4.0695    2.0723 H        1 ZINC000000000853    0.0800
31     H31     2.0597   -6.5270    1.0753 H        1 ZINC000000000853    0.0800
32     H32     3.8297   -6.3435    1.1182 H        1 ZINC000000000853    0.0700
33     H33     3.0178   -7.6069    3.0914 H        1 ZINC000000000853    0.0800
34     H34     3.7402   -6.0550    3.5794 H        1 ZINC000000000853    0.0700
35     H35     0.7585   -6.5917    3.2073 H        1 ZINC000000000853    0.0900
36     H36     1.6015   -6.4544    4.7689 H        1 ZINC000000000853    0.0600
37     H37    -0.0348   -3.1303    4.2389 H        1 ZINC000000000853    0.1300
38     H38    -0.7035   -4.7429    3.8913 H        1 ZINC000000000853    0.1400
39     H39     0.9376   -2.6506    6.3220 H        1 ZINC000000000853    0.1200
40     H40     1.2461   -3.9495    7.4992 H        1 ZINC000000000853    0.1300
41     H41     2.1718   -3.8868    5.9802 H        1 ZINC000000000853    0.1200
42     H42    -1.8788   -4.9125    5.9226 H        1 ZINC000000000853    0.1200
43     H43    -1.0777   -4.5269    7.4647 H        1 ZINC000000000853    0.1200
44     H44    -1.3923   -3.2377    6.2784 H        1 ZINC000000000853    0.1200
45     H45     0.2386   -2.6554    0.3025 H        1 ZINC000000000853    0.1300
@<TRIPOS>BOND
1     1     2     1
2     1     22    1
3     1     23    1
4     1     24    1
5     2     3     1
6     3     21    ar
7     3     4     ar
8     4     5     ar
9     4     25    1
10    5     6     ar
11    5     26    1
12    6     7     ar
13    6     27    1
14    7     8     1
15    7     21    ar
16    8     14    1
17    8     9     1
18    8     10    1
19    9     28    1
20    10    11    1
21    10    29    1
22    10    30    1
23    11    12    1
24    11    31    1
25    11    32    1
26    12    13    1
27    12    33    1
28    12    34    1
29    13    14    1
30    13    35    1
31    13    36    1
32    14    15    1
33    14    16    1
34    16    17    1
35    16    37    1
36    16    38    1
37    17    18    1
38    17    19    1
39    17    20    1
40    19    39    1
41    19    40    1
42    19    41    1
43    20    42    1
44    20    43    1
45    20    44    1
46    21    45    1
@<TRIPOS>SUBSTRUCTURE
1   ZINC000000000853 1     RESIDUE    1   A     ZIN   1
