@<TRIPOS>MOLECULE
ZINC000000056653
33   33    0    0    0
SMALL
USER_CHARGES
NO_NAME
@<TRIPOS>ATOM
1 C1       -0.0187     1.5258     0.0104 C.3    1 <0>      -0.1900
2 C2        0.0021    -0.0041     0.0020 C.3    1 <0>       0.0200
3 C3        0.7421    -0.5109     1.2415 C.3    1 <0>      -0.1900
4 N4       -1.3761    -0.5125     0.0124 N.4    1 <0>      -0.5000
5 H5       -1.8225    -0.2564     0.8803 H      1 <0>       0.4300
6 H6       -1.8879    -0.1129    -0.7598 H      1 <0>       0.4300
7 C7       -1.3591    -1.9758    -0.1163 C.3    1 <0>      -0.0500
8 C8       -2.7945    -2.5054    -0.1054 C.3    1 <0>       0.1400
9 H9       -3.3047    -2.1538     0.7914 H      1 <0>       0.1300
10 O10      -3.4857    -2.0320    -1.2631 O.3    1 <0>      -0.5500
11 C11      -2.7741    -4.0122    -0.1137 C.ar   1 <0>      -0.1400
12 C12      -2.5624    -4.6924    -1.2981 C.ar   1 <0>      -0.1000
13 C13      -2.5432    -6.0750    -1.3110 C.ar   1 <0>      -0.1200
14 C14      -2.7359    -6.7814    -0.1351 C.ar   1 <0>       0.1000
15 O15      -2.7169    -8.1412    -0.1460 O.3    1 <0>      -0.4800
16 C16      -2.9487    -6.0964     1.0578 C.ar   1 <0>       0.0900
17 O17      -3.1379    -6.7854     2.2149 O.3    1 <0>      -0.4800
18 C18      -2.9615    -4.7112     1.0646 C.ar   1 <0>      -0.1100
19 H19       1.0039     1.9031     0.0027 H      1 <0>       0.1100
20 H20      -0.5459     1.8868    -0.8726 H      1 <0>       0.0800
21 H21      -0.5289     1.8773     0.9072 H      1 <0>       0.0800
22 H22       0.5123    -0.3556    -0.8948 H      1 <0>       0.1400
23 H23       0.7568    -1.6008     1.2356 H      1 <0>       0.0800
24 H24       1.7647    -0.1336     1.2338 H      1 <0>       0.1100
25 H25       0.2319    -0.1594     2.1383 H      1 <0>       0.0800
26 H26      -0.8769    -2.2525    -1.0538 H      1 <0>       0.1400
27 H27      -0.8062    -2.4075     0.7180 H      1 <0>       0.1400
28 H28      -3.0863    -2.3073    -2.0996 H      1 <0>       0.3900
29 H29      -2.4120    -4.1428    -2.2156 H      1 <0>       0.1300
30 H30      -2.3783    -6.6042    -2.2380 H      1 <0>       0.1400
31 H31      -1.8408    -8.5235     0.0001 H      1 <0>       0.4000
32 H32      -2.3219    -6.9736     2.6985 H      1 <0>       0.3900
33 H33      -3.1264    -4.1773     1.9888 H      1 <0>       0.1400
@<TRIPOS>BOND
1    1    2 1
2    1   19 1
3    1   20 1
4    1   21 1
5    2    3 1
6    2    4 1
7    2   22 1
8    3   23 1
9    3   24 1
10    3   25 1
11    4    5 1
12    4    6 1
13    4    7 1
14    7    8 1
15    7   26 1
16    7   27 1
17    8    9 1
18    8   10 1
19    8   11 1
20   10   28 1
21   11   18 ar
22   11   12 ar
23   12   13 ar
24   12   29 1
25   13   14 ar
26   13   30 1
27   14   15 1
28   14   16 ar
29   15   31 1
30   16   17 1
31   16   18 ar
32   17   32 1
33   18   33 1
