@<TRIPOS>MOLECULE
ZINC000006409735
18    19    1     0     0
SMALL
USER_CHARGES
@<TRIPOS>ATOM
1      O1     -0.0164    1.3547    0.0095 O.3      1 ZINC000006409735   -0.4600
2      C2      0.0021   -0.0041    0.0020 C.ar     1 ZINC000006409735    0.1900
3      C3      0.0059   -0.7071   -1.2202 C.ar     1 ZINC000006409735    0.1100
4      N4     -0.0079   -0.0583   -2.3884 N.ar     1 ZINC000006409735   -0.4500
5      C5     -0.0040   -0.7062   -3.5279 C.ar     1 ZINC000006409735    0.1400
6      C6      0.0146   -2.0984   -3.5791 C.ar     1 ZINC000006409735   -0.1500
7      C7      0.0293   -2.8229   -2.4214 C.ar     1 ZINC000006409735   -0.0600
8      C8      0.0252   -2.1235   -1.1998 C.ar     1 ZINC000006409735   -0.0800
9      C9      0.0392   -2.8025    0.0301 C.ar     1 ZINC000006409735   -0.0200
10     Cl10    0.0635   -4.5380    0.0655 Cl       1 ZINC000006409735   -0.0400
11     C11     0.0342   -2.0957    1.1952 C.ar     1 ZINC000006409735   -0.0600
12     C12     0.0228   -0.7031    1.1874 C.ar     1 ZINC000006409735   -0.1200
13     I13     0.0161    0.3410    3.0036 I        1 ZINC000006409735    0.0000
14     H14     0.8616    1.7600    0.0033 H        1 ZINC000006409735    0.4000
15     H15    -0.0159   -0.1461   -4.4513 H        1 ZINC000006409735    0.1700
16     H16     0.0169   -2.6042   -4.5333 H        1 ZINC000006409735    0.1500
17     H17     0.0435   -3.9026   -2.4426 H        1 ZINC000006409735    0.1500
18     H18     0.0450   -2.6228    2.1378 H        1 ZINC000006409735    0.1500
@<TRIPOS>BOND
1     1     2     1
2     1     14    1
3     2     12    ar
4     2     3     ar
5     3     8     ar
6     3     4     ar
7     4     5     ar
8     5     6     ar
9     5     15    1
10    6     7     ar
11    6     16    1
12    7     8     ar
13    7     17    1
14    8     9     ar
15    9     10    1
16    9     11    ar
17    11    12    ar
18    11    18    1
19    12    13    1
@<TRIPOS>SUBSTRUCTURE
1   ZINC000006409735 1     RESIDUE    1   A     ZIN   1
