@<TRIPOS>MOLECULE
ZINC000019168887
29    29    1     0     0
SMALL
USER_CHARGES
@<TRIPOS>ATOM
1      C1     -0.0187    1.5258    0.0104 C.3      1 ZINC000019168887   -0.1200
2      C2      0.0021   -0.0041    0.0020 C.3      1 ZINC000019168887    0.0300
3      C3      0.7421   -0.5109    1.2415 C.3      1 ZINC000019168887   -0.0500
4      C4      2.1559    0.0107    1.2308 C.ar     1 ZINC000019168887   -0.0400
5      C5      3.1550   -0.7179    0.6135 C.ar     1 ZINC000019168887   -0.0300
6      C6      4.4539   -0.2438    0.6014 C.ar     1 ZINC000019168887   -0.1400
7      C7      4.7560    0.9642    1.2084 C.ar     1 ZINC000019168887    0.0700
8      O8      6.0329    1.4321    1.1970 O.3      1 ZINC000019168887   -0.5000
9      C9      3.7497    1.6982    1.8298 C.ar     1 ZINC000019168887    0.0600
10     O10     4.0412    2.8848    2.4267 O.3      1 ZINC000019168887   -0.4900
11     C11     2.4496    1.2200    1.8338 C.ar     1 ZINC000019168887   -0.1300
12     N12    -1.3761   -0.5125    0.0124 N.3      1 ZINC000019168887   -0.5100
13     N13    -2.1110   -0.0498   -1.1537 N.3      1 ZINC000019168887   -0.6800
14     C14     0.7074   -0.4901   -1.2379 C.2      1 ZINC000019168887    0.4800
15     O15     1.8687   -0.1786   -1.4402 O.co2    1 ZINC000019168887   -0.6900
16     O16     0.1168   -1.1947   -2.0386 O.co2    1 ZINC000019168887   -0.6700
17     H17     1.0039    1.9031    0.0027 H        1 ZINC000019168887    0.0600
18     H18    -0.5459    1.8868   -0.8726 H        1 ZINC000019168887    0.0400
19     H19    -0.5289    1.8773    0.9072 H        1 ZINC000019168887    0.0400
20     H20     0.2319   -0.1594    2.1383 H        1 ZINC000019168887    0.0700
21     H21     0.7568   -1.6008    1.2356 H        1 ZINC000019168887    0.0600
22     H22     2.9208   -1.6598    0.1399 H        1 ZINC000019168887    0.1200
23     H23     5.2330   -0.8154    0.1189 H        1 ZINC000019168887    0.1200
24     H24     6.2408    1.9893    0.4345 H        1 ZINC000019168887    0.3800
25     H25     3.9642    3.6496    1.8400 H        1 ZINC000019168887    0.3800
26     H26     1.6670    1.7876    2.3152 H        1 ZINC000019168887    0.1200
27     H27    -1.3895   -1.5197    0.0721 H        1 ZINC000019168887    0.3400
28     H28    -3.0576   -0.3991   -1.1465 H        1 ZINC000019168887    0.3300
29     H29    -2.0976    0.9573   -1.2134 H        1 ZINC000019168887    0.3400
@<TRIPOS>BOND
1     1     2     1
2     1     17    1
3     1     18    1
4     1     19    1
5     2     3     1
6     2     12    1
7     2     14    1
8     3     4     1
9     3     20    1
10    3     21    1
11    4     11    ar
12    4     5     ar
13    5     6     ar
14    5     22    1
15    6     7     ar
16    6     23    1
17    7     8     1
18    7     9     ar
19    8     24    1
20    9     10    1
21    9     11    ar
22    10    25    1
23    11    26    1
24    12    13    1
25    12    27    1
26    13    28    1
27    13    29    1
28    14    15    ar
29    14    16    ar
@<TRIPOS>SUBSTRUCTURE
1   ZINC000019168887 1     RESIDUE    1   A     ZIN   1
