@<TRIPOS>MOLECULE
ZINC000000643055
40   42    0    0    0
SMALL
NO_CHARGES
@<TRIPOS>ATOM
1 Cl1            0.0021    -0.0041     0.0020 Cl
2 C2            -0.0215     1.7317     0.0116 C.ar
3 C3            -1.2286     2.4074     0.0325 C.ar
4 C4            -1.2467     3.7894     0.0400 C.ar
5 C5            -0.0590     4.4966     0.0262 C.ar
6 C6            -0.0794     6.0034     0.0340 C.3
7 O7            -0.0663     6.4730     1.3835 O.3
8 C8            -0.0840     7.8969     1.5036 C.3
9 H9             0.4114     8.3405     0.6400 H
10 C10           -1.5325     8.3853     1.5674 C.3
11 N11           -2.2021     8.0952     0.2971 N.pl3
12 C12           -2.2543     8.9136    -0.7989 C.2
13 C13           -2.9642     8.2609    -1.7390 C.2
14 N14           -3.3352     7.0764    -1.2308 N.pl3
15 H15           -3.8578     6.4046    -1.6962 H
16 C16           -2.8780     6.9681    -0.0134 C.cat
17 C17            0.6393     8.3039     2.7616 C.ar
18 C18            0.7399     7.4184     3.8178 C.ar
19 C19            1.4028     7.7912     4.9722 C.ar
20 C20            1.9662     9.0508     5.0706 C.ar
21 Cl21           2.7991     9.5186     6.5201 Cl
22 C22            1.8661     9.9376     4.0133 C.ar
23 C23            1.2073     9.5621     2.8566 C.ar
24 Cl24           1.0817    10.6739     1.5292 Cl
25 C25            1.1475     3.8220     0.0058 C.ar
26 C26            1.1670     2.4400     0.0040 C.ar
27 H27           -2.1566     1.8550     0.0425 H
28 H28           -2.1890     4.3169     0.0563 H
29 H29            0.7980     6.3814    -0.4908 H
30 H30           -0.9817     6.3571    -0.4651 H
31 H31           -2.0529     7.8743     2.3774 H
32 H32           -1.5459     9.4602     1.7480 H
33 H33           -1.8117     9.8943    -0.8918 H
34 H34           -3.1944     8.6271    -2.7286 H
35 H35           -3.0220     6.1203     0.6401 H
36 H36            0.3003     6.4349     3.7415 H
37 H37            1.4806     7.0991     5.7976 H
38 H38            2.3058    10.9211     4.0896 H
39 H39            2.0751     4.3751    -0.0050 H
40 H40            2.1096     1.9132    -0.0116 H
@<TRIPOS>BOND
1    1    2 1
2    2   26 ar
3    2    3 ar
4    3    4 ar
5    3   27 1
6    4    5 ar
7    4   28 1
8    5    6 1
9    5   25 ar
10    6    7 1
11    6   29 1
12    6   30 1
13    7    8 1
14    8    9 1
15    8   10 1
16    8   17 1
17   10   11 1
18   10   31 1
19   10   32 1
20   11   16 ar
21   11   12 1
22   12   13 2
23   12   33 1
24   13   14 1
25   13   34 1
26   14   15 1
27   14   16 ar
28   16   35 1
29   17   23 ar
30   17   18 ar
31   18   19 ar
32   18   36 1
33   19   20 ar
34   19   37 1
35   20   21 1
36   20   22 ar
37   22   23 ar
38   22   38 1
39   23   24 1
40   25   26 ar
41   25   39 1
42   26   40 1
