@<TRIPOS>MOLECULE
ZINC000019144216
44    45    1     0     0
SMALL
USER_CHARGES
@<TRIPOS>ATOM
1      C1     -0.8754    0.3648   -0.4035 C.3      1 ZINC000019144216    0.0300
2      O2     -0.7619   -1.0316   -0.1219 O.3      1 ZINC000019144216   -0.3200
3      C3      0.0215   -1.3872    0.9301 C.ar     1 ZINC000019144216    0.1300
4      C4      0.6632   -0.4118    1.6795 C.ar     1 ZINC000019144216   -0.2100
5      C5      1.4586   -0.7758    2.7487 C.ar     1 ZINC000019144216   -0.0600
6      C6      1.6159   -2.1110    3.0718 C.ar     1 ZINC000019144216   -0.1500
7      C7      2.4847   -2.5053    4.2384 C.3      1 ZINC000019144216    0.1700
8      N8      1.6503   -2.6892    5.4284 N.pl3    1 ZINC000019144216   -0.6000
9      C9      0.9979   -3.9779    5.6735 C.3      1 ZINC000019144216    0.1300
10     C10     1.9260   -4.8703    6.5002 C.3      1 ZINC000019144216    0.0400
11     N11     1.2718   -6.1624    6.7459 N.3      1 ZINC000019144216   -0.5400
12     C12     1.0935   -6.9089    5.4934 C.3      1 ZINC000019144216    0.0200
13     C13     2.0235   -6.9546    7.7285 C.3      1 ZINC000019144216    0.0300
14     C14     1.4777   -1.6411    6.3250 C.ar     1 ZINC000019144216    0.4100
15     C15     2.0257   -0.3944    6.0418 C.ar     1 ZINC000019144216   -0.2400
16     C16     1.8458    0.6399    6.9427 C.ar     1 ZINC000019144216   -0.0300
17     C17     1.1212    0.3916    8.1006 C.ar     1 ZINC000019144216   -0.2400
18     C18     0.6051   -0.8704    8.3179 C.ar     1 ZINC000019144216    0.1500
19     N19     0.7882   -1.8369    7.4385 N.ar     1 ZINC000019144216   -0.5400
20     C20     0.9772   -3.0849    2.3268 C.ar     1 ZINC000019144216   -0.0600
21     C21     0.1764   -2.7258    1.2599 C.ar     1 ZINC000019144216   -0.1500
22     H22     0.1114    0.7727   -0.6222 H        1 ZINC000019144216    0.0600
23     H23    -1.5276    0.5099   -1.2647 H        1 ZINC000019144216    0.1000
24     H24    -1.2967    0.8768    0.4617 H        1 ZINC000019144216    0.0600
25     H25     0.5412    0.6311    1.4270 H        1 ZINC000019144216    0.1300
26     H26     1.9584   -0.0169    3.3324 H        1 ZINC000019144216    0.1200
27     H27     3.0004   -3.4376    4.0085 H        1 ZINC000019144216    0.0900
28     H28     3.2181   -1.7212    4.4266 H        1 ZINC000019144216    0.0900
29     H29     0.0682   -3.8164    6.2191 H        1 ZINC000019144216    0.0900
30     H30     0.7812   -4.4623    4.7215 H        1 ZINC000019144216    0.0700
31     H31     2.8557   -5.0317    5.9546 H        1 ZINC000019144216    0.0300
32     H32     2.1428   -4.3858    7.4522 H        1 ZINC000019144216    0.0800
33     H33     2.0666   -7.0910    5.0373 H        1 ZINC000019144216    0.0300
34     H34     0.6071   -7.8613    5.7041 H        1 ZINC000019144216    0.0700
35     H35     0.4745   -6.3283    4.8094 H        1 ZINC000019144216    0.0700
36     H36     2.0806   -6.4072    8.6693 H        1 ZINC000019144216    0.0700
37     H37     1.5174   -7.9060    7.8918 H        1 ZINC000019144216    0.0700
38     H38     3.0303   -7.1383    7.3533 H        1 ZINC000019144216    0.0200
39     H39     2.5844   -0.2362    5.1312 H        1 ZINC000019144216    0.1300
40     H40     2.2600    1.6185    6.7497 H        1 ZINC000019144216    0.1300
41     H41     0.9630    1.1776    8.8242 H        1 ZINC000019144216    0.1300
42     H42     0.0408   -1.0679    9.2173 H        1 ZINC000019144216    0.1500
43     H43     1.1013   -4.1271    2.5814 H        1 ZINC000019144216    0.1300
44     H44    -0.3224   -3.4869    0.6782 H        1 ZINC000019144216    0.1300
@<TRIPOS>BOND
1     1     2     1
2     1     22    1
3     1     23    1
4     1     24    1
5     2     3     1
6     3     21    ar
7     3     4     ar
8     4     5     ar
9     4     25    1
10    5     6     ar
11    5     26    1
12    6     7     1
13    6     20    ar
14    7     8     1
15    7     27    1
16    7     28    1
17    8     9     1
18    8     14    1
19    9     10    1
20    9     29    1
21    9     30    1
22    10    11    1
23    10    31    1
24    10    32    1
25    11    12    1
26    11    13    1
27    12    33    1
28    12    34    1
29    12    35    1
30    13    36    1
31    13    37    1
32    13    38    1
33    14    19    ar
34    14    15    ar
35    15    16    ar
36    15    39    1
37    16    17    ar
38    16    40    1
39    17    18    ar
40    17    41    1
41    18    19    ar
42    18    42    1
43    20    21    ar
44    20    43    1
45    21    44    1
@<TRIPOS>SUBSTRUCTURE
1   ZINC000019144216 1     RESIDUE    1   A     ZIN   1
