@<TRIPOS>MOLECULE
ZINC000003831531
50    52    1     0     0
SMALL
USER_CHARGES
@<TRIPOS>ATOM
1      C1     -2.2724   -2.5047   -0.8806 C.3      1 ZINC000003831531   -0.1000
2      C2     -0.8635   -2.2930   -0.3894 C.2      1 ZINC000003831531   -0.0700
3      C3      0.0464   -1.5738   -1.0773 C.2      1 ZINC000003831531   -0.1600
4      C4     -0.1960   -0.9072   -2.3737 C.2      1 ZINC000003831531    0.0500
5      C5     -0.4136    0.4189   -2.4175 C.2      1 ZINC000003831531   -0.1500
6      C6     -0.2948    1.2438   -1.1619 C.3      1 ZINC000003831531   -0.1200
7      C7      0.7426    2.3483   -1.3736 C.3      1 ZINC000003831531   -0.0100
8      N8      0.9119    3.1065   -0.1268 N.4      1 ZINC000003831531   -0.3800
9      H9      0.0136    3.4436    0.1853 H        1 ZINC000003831531    0.4200
10     C10     1.4889    2.2322    0.9013 C.3      1 ZINC000003831531   -0.0100
11     C11     1.5923    2.9937    2.2245 C.3      1 ZINC000003831531   -0.1400
12     C12     2.4894    4.2199    2.0328 C.3      1 ZINC000003831531   -0.1100
13     C13     1.9183    5.0871    0.9071 C.3      1 ZINC000003831531   -0.1800
14     H14     0.9318    5.4517    1.1934 H        1 ZINC000003831531    0.0800
15     C15     2.8348    6.2573    0.6590 C.2      1 ZINC000003831531    0.5000
16     O16     3.8509    6.3868    1.3203 O.co2    1 ZINC000003831531   -0.6700
17     O17     2.5603    7.0745   -0.2032 O.co2    1 ZINC000003831531   -0.6800
18     C18     1.8043    4.2469   -0.3668 C.3      1 ZINC000003831531    0.0200
19     C19    -0.1991   -1.6981   -3.6220 C.2      1 ZINC000003831531   -0.1700
20     C20     0.1228   -3.0041   -3.7172 C.2      1 ZINC000003831531   -0.0700
21     C21     0.5339   -3.8291   -2.5249 C.3      1 ZINC000003831531   -0.1100
22     C22     0.0455   -3.5254   -4.9919 C.2      1 ZINC000003831531   -0.1400
23     C23    -0.3354   -2.6593   -5.9357 C.2      1 ZINC000003831531   -0.2000
24     S24    -0.6306   -1.0837   -5.2126 S.3      1 ZINC000003831531    0.1200
25     S25     1.5661   -1.5515   -0.1921 S.3      1 ZINC000003831531    0.1000
26     C26     0.8714   -2.5378    1.0874 C.2      1 ZINC000003831531   -0.2000
27     C27    -0.4045   -2.8148    0.8021 C.2      1 ZINC000003831531   -0.1300
28     H28    -2.9272   -1.7521   -0.4415 H        1 ZINC000003831531    0.0700
29     H29    -2.2955   -2.4172   -1.9668 H        1 ZINC000003831531    0.0700
30     H30    -2.6135   -3.4980   -0.5888 H        1 ZINC000003831531    0.0700
31     H31    -0.6735    0.8929   -3.3524 H        1 ZINC000003831531    0.1300
32     H32    -1.2606    1.6923   -0.9291 H        1 ZINC000003831531    0.1000
33     H33     0.0179    0.6052   -0.3358 H        1 ZINC000003831531    0.0900
34     H34     1.6951    1.9022   -1.6597 H        1 ZINC000003831531    0.1300
35     H35     0.4036    3.0187   -2.1634 H        1 ZINC000003831531    0.1300
36     H36     0.8510    1.3584    1.0343 H        1 ZINC000003831531    0.1200
37     H37     2.4826    1.9112    0.5888 H        1 ZINC000003831531    0.1300
38     H38     0.5990    3.3149    2.5381 H        1 ZINC000003831531    0.0800
39     H39     2.0226    2.3434    2.9861 H        1 ZINC000003831531    0.1000
40     H40     2.5208    4.7967    2.9571 H        1 ZINC000003831531    0.0900
41     H41     3.4965    3.8970    1.7689 H        1 ZINC000003831531    0.0800
42     H42     2.7917    3.8836   -0.6515 H        1 ZINC000003831531    0.1200
43     H43     1.3982    4.8605   -1.1710 H        1 ZINC000003831531    0.1300
44     H44    -0.3555   -4.1784   -2.0007 H        1 ZINC000003831531    0.0700
45     H45     1.1182   -4.6860   -2.8602 H        1 ZINC000003831531    0.0700
46     H46     1.1366   -3.2194   -1.8517 H        1 ZINC000003831531    0.0800
47     H47     0.2763   -4.5574   -5.2111 H        1 ZINC000003831531    0.1400
48     H48    -0.4488   -2.8929   -6.9840 H        1 ZINC000003831531    0.1700
49     H49     1.3956   -2.8668    1.9724 H        1 ZINC000003831531    0.1700
50     H50    -1.0281   -3.4099    1.4528 H        1 ZINC000003831531    0.1500
@<TRIPOS>BOND
1     1     2     1
2     1     28    1
3     1     29    1
4     1     30    1
5     2     27    1
6     2     3     2
7     3     4     1
8     3     25    1
9     4     5     2
10    4     19    1
11    5     6     1
12    5     31    1
13    6     7     1
14    6     32    1
15    6     33    1
16    7     8     1
17    7     34    1
18    7     35    1
19    8     9     1
20    8     18    1
21    8     10    1
22    10    11    1
23    10    36    1
24    10    37    1
25    11    12    1
26    11    38    1
27    11    39    1
28    12    13    1
29    12    40    1
30    12    41    1
31    13    14    1
32    13    15    1
33    13    18    1
34    15    16    ar
35    15    17    ar
36    18    42    1
37    18    43    1
38    19    24    1
39    19    20    2
40    20    21    1
41    20    22    1
42    21    44    1
43    21    45    1
44    21    46    1
45    22    23    2
46    22    47    1
47    23    24    1
48    23    48    1
49    25    26    1
50    26    27    2
51    26    49    1
52    27    50    1
@<TRIPOS>SUBSTRUCTURE
1   ZINC000003831531 1     RESIDUE    1   A     ZIN   1
