@<TRIPOS>MOLECULE
ZINC000022448097
67    67    1     0     0
SMALL
USER_CHARGES
@<TRIPOS>ATOM
1      C1      1.6787   -0.3971   -3.9188 C.3      1 ZINC000022448097   -0.1500
2      C2      1.7341   -1.6553   -3.0500 C.3      1 ZINC000022448097    0.0500
3      O3      0.7791   -2.6055   -3.5264 O.3      1 ZINC000022448097   -0.3200
4      C4      0.6994   -3.7873   -2.8601 C.ar     1 ZINC000022448097    0.1300
5      C5      1.5194   -4.0251   -1.7666 C.ar     1 ZINC000022448097   -0.2100
6      C6      1.4362   -5.2270   -1.0907 C.ar     1 ZINC000022448097   -0.1000
7      C7      0.5368   -6.1927   -1.5034 C.ar     1 ZINC000022448097   -0.1300
8      C8      0.4485   -7.5031   -0.7645 C.3      1 ZINC000022448097   -0.1000
9      C9     -0.6053   -7.3960    0.3396 C.3      1 ZINC000022448097    0.0500
10     H10    -1.5727   -7.1591   -0.1032 H        1 ZINC000022448097    0.1400
11     C11    -0.6988   -8.7281    1.0864 C.3      1 ZINC000022448097    0.0400
12     N12    -1.2511   -9.7536    0.1913 N.3      1 ZINC000022448097   -0.5100
13     C13    -1.2171  -11.0787    0.8245 C.3      1 ZINC000022448097    0.0200
14     C14    -1.4086  -12.1587   -0.2422 C.3      1 ZINC000022448097   -0.0200
15     N15    -1.4736  -13.4772    0.4022 N.4      1 ZINC000022448097   -0.3300
16     H16    -0.6591  -13.6082    0.9831 H        1 ZINC000022448097    0.4000
17     C17    -2.6840  -13.5583    1.2306 C.3      1 ZINC000022448097   -0.0900
18     C18    -3.9028  -13.4380    0.3523 C.2      1 ZINC000022448097    0.5100
19     O19    -3.7763  -13.1979   -0.8363 O.co2    1 ZINC000022448097   -0.6800
20     O20    -5.0152  -13.5807    0.8305 O.co2    1 ZINC000022448097   -0.6600
21     C21    -1.5141  -14.5240   -0.6277 C.3      1 ZINC000022448097   -0.0900
22     C22    -1.3965  -15.8767    0.0261 C.2      1 ZINC000022448097    0.5000
23     O23    -1.3224  -15.9627    1.2400 O.co2    1 ZINC000022448097   -0.6800
24     O24    -1.3754  -16.8851   -0.6589 O.co2    1 ZINC000022448097   -0.6800
25     C25    -2.6150   -9.4059   -0.2292 C.3      1 ZINC000022448097   -0.0300
26     C26    -3.4955   -9.2676    0.9859 C.2      1 ZINC000022448097    0.4800
27     O27    -3.0583   -9.5432    2.0902 O.co2    1 ZINC000022448097   -0.6900
28     O28    -4.6451   -8.8800    0.8648 O.co2    1 ZINC000022448097   -0.6900
29     N29    -0.2236   -6.3335    1.2794 N.4      1 ZINC000022448097   -0.3300
30     H30    -0.7260   -6.4544    2.1460 H        1 ZINC000022448097    0.4300
31     C31     1.2210   -6.4034    1.5371 C.3      1 ZINC000022448097   -0.1100
32     C32     1.4933   -7.4450    2.5917 C.2      1 ZINC000022448097    0.4900
33     O33     0.5658   -7.9706    3.1832 O.co2    1 ZINC000022448097   -0.6400
34     O34     2.6411   -7.7620    2.8533 O.co2    1 ZINC000022448097   -0.6800
35     C35    -0.5548   -5.0249    0.6999 C.3      1 ZINC000022448097   -0.1200
36     C36    -2.0505   -4.8408    0.6972 C.2      1 ZINC000022448097    0.4800
37     O37    -2.7676   -5.6688    1.2326 O.co2    1 ZINC000022448097   -0.6400
38     O38    -2.5435   -3.8638    0.1597 O.co2    1 ZINC000022448097   -0.6800
39     C39    -0.2818   -5.9580   -2.5926 C.ar     1 ZINC000022448097   -0.0600
40     C40    -0.2061   -4.7557   -3.2687 C.ar     1 ZINC000022448097   -0.1400
41     H41     2.4072    0.3278   -3.5554 H        1 ZINC000022448097    0.0700
42     H42     1.9100   -0.6582   -4.9515 H        1 ZINC000022448097    0.0600
43     H43     0.6795    0.0355   -3.8685 H        1 ZINC000022448097    0.0700
44     H44     2.7333   -2.0878   -3.1004 H        1 ZINC000022448097    0.0600
45     H45     1.5028   -1.3942   -2.0173 H        1 ZINC000022448097    0.0600
46     H46     2.2225   -3.2713   -1.4443 H        1 ZINC000022448097    0.1300
47     H47     2.0743   -5.4126   -0.2394 H        1 ZINC000022448097    0.1400
48     H48     0.1671   -8.2940   -1.4597 H        1 ZINC000022448097    0.1200
49     H49     1.4166   -7.7364   -0.3213 H        1 ZINC000022448097    0.0900
50     H50     0.2953   -9.0305    1.4158 H        1 ZINC000022448097    0.0900
51     H51    -1.3495   -8.6137    1.9533 H        1 ZINC000022448097    0.1200
52     H52    -0.2555  -11.2213    1.3174 H        1 ZINC000022448097    0.0700
53     H53    -2.0172  -11.1499    1.5614 H        1 ZINC000022448097    0.1000
54     H54    -2.3357  -11.9733   -0.7846 H        1 ZINC000022448097    0.1600
55     H55    -0.5697  -12.1351   -0.9377 H        1 ZINC000022448097    0.1000
56     H56    -2.7045  -14.5156    1.7513 H        1 ZINC000022448097    0.1400
57     H57    -2.6802  -12.7481    1.9597 H        1 ZINC000022448097    0.1200
58     H58    -2.4574  -14.4635   -1.1704 H        1 ZINC000022448097    0.1600
59     H59    -0.6858  -14.3828   -1.3220 H        1 ZINC000022448097    0.1000
60     H60    -2.5977   -8.4624   -0.7747 H        1 ZINC000022448097    0.0700
61     H61    -3.0076  -10.1916   -0.8748 H        1 ZINC000022448097    0.0800
62     H62     1.7414   -6.6723    0.6179 H        1 ZINC000022448097    0.1300
63     H63     1.5754   -5.4330    1.8848 H        1 ZINC000022448097    0.1000
64     H64    -0.0928   -4.2368    1.2945 H        1 ZINC000022448097    0.1000
65     H65    -0.1808   -4.9752   -0.3227 H        1 ZINC000022448097    0.1500
66     H66    -0.9837   -6.7138   -2.9128 H        1 ZINC000022448097    0.1400
67     H67    -0.8458   -4.5728   -4.1194 H        1 ZINC000022448097    0.1300
@<TRIPOS>BOND
1     1     2     1
2     1     41    1
3     1     42    1
4     1     43    1
5     2     3     1
6     2     44    1
7     2     45    1
8     3     4     1
9     4     40    ar
10    4     5     ar
11    5     6     ar
12    5     46    1
13    6     7     ar
14    6     47    1
15    7     8     1
16    7     39    ar
17    8     9     1
18    8     48    1
19    8     49    1
20    9     10    1
21    9     11    1
22    9     29    1
23    11    12    1
24    11    50    1
25    11    51    1
26    12    13    1
27    12    25    1
28    13    14    1
29    13    52    1
30    13    53    1
31    14    15    1
32    14    54    1
33    14    55    1
34    15    16    1
35    15    17    1
36    15    21    1
37    17    18    1
38    17    56    1
39    17    57    1
40    18    19    ar
41    18    20    ar
42    21    22    1
43    21    58    1
44    21    59    1
45    22    23    ar
46    22    24    ar
47    25    26    1
48    25    60    1
49    25    61    1
50    26    27    ar
51    26    28    ar
52    29    30    1
53    29    31    1
54    29    35    1
55    31    32    1
56    31    62    1
57    31    63    1
58    32    33    ar
59    32    34    ar
60    35    36    1
61    35    64    1
62    35    65    1
63    36    37    ar
64    36    38    ar
65    39    40    ar
66    39    66    1
67    40    67    1
@<TRIPOS>SUBSTRUCTURE
1   ZINC000022448097 1     RESIDUE    1   A     ZIN   1
