@<TRIPOS>MOLECULE
ZINC000003799072
68    69    1     0     0
SMALL
USER_CHARGES
@<TRIPOS>ATOM
1      O1     -0.0173    1.4248    0.0099 O.3      1 ZINC000003799072   -0.5800
2      C2      0.0021   -0.0041    0.0020 C.3      1 ZINC000003799072    0.1200
3      C3     -1.4117   -0.5257    0.0127 C.ar     1 ZINC000003799072   -0.1100
4      C4     -2.4741    0.3570    0.0219 C.ar     1 ZINC000003799072   -0.0600
5      C5     -3.7717   -0.1210    0.0322 C.ar     1 ZINC000003799072   -0.1600
6      C6     -4.9289    0.8443    0.0422 C.3      1 ZINC000003799072    0.1400
7      H7     -4.6148    1.7925   -0.3941 H        1 ZINC000003799072    0.1300
8      O8     -6.0079    0.3024   -0.7221 O.3      1 ZINC000003799072   -0.5500
9      C9     -5.3893    1.0736    1.4832 C.3      1 ZINC000003799072   -0.0400
10     N10    -6.5173    2.0146    1.4929 N.4      1 ZINC000003799072   -0.5100
11     H11    -6.2266    2.8923    1.0890 H        1 ZINC000003799072    0.4300
12     H12    -7.2792    1.6319    0.9533 H        1 ZINC000003799072    0.4300
13     C13    -6.9594    2.2347    2.8764 C.3      1 ZINC000003799072   -0.0100
14     C14    -8.1342    3.2148    2.8866 C.3      1 ZINC000003799072   -0.1500
15     C15    -8.5947    3.4441    4.3275 C.3      1 ZINC000003799072   -0.1200
16     C16    -9.7695    4.4242    4.3377 C.3      1 ZINC000003799072   -0.1200
17     C17   -10.2299    4.6535    5.7786 C.3      1 ZINC000003799072   -0.1200
18     C18   -11.4048    5.6335    5.7888 C.3      1 ZINC000003799072    0.0600
19     O19   -11.8348    5.8477    7.1346 O.3      1 ZINC000003799072   -0.3900
20     C20   -12.9341    6.7526    7.2565 C.3      1 ZINC000003799072    0.0600
21     C21   -13.3075    6.9055    8.7323 C.3      1 ZINC000003799072   -0.1200
22     C22   -14.4845    7.8743    8.8628 C.3      1 ZINC000003799072   -0.1100
23     C23   -14.8579    8.0272   10.3387 C.3      1 ZINC000003799072   -0.0800
24     C24   -16.0172    8.9815   10.4672 C.ar     1 ZINC000003799072   -0.0900
25     C25   -15.7842   10.3356   10.6191 C.ar     1 ZINC000003799072   -0.1200
26     C26   -16.8476   11.2109   10.7371 C.ar     1 ZINC000003799072   -0.1200
27     C27   -18.1439   10.7322   10.7026 C.ar     1 ZINC000003799072   -0.1200
28     C28   -18.3769    9.3783   10.5498 C.ar     1 ZINC000003799072   -0.1200
29     C29   -17.3136    8.5034   10.4276 C.ar     1 ZINC000003799072   -0.1200
30     C30    -4.0091   -1.4829    0.0329 C.ar     1 ZINC000003799072   -0.0900
31     C31    -2.9499   -2.3700    0.0233 C.ar     1 ZINC000003799072   -0.1400
32     C32    -1.6474   -1.8930    0.0076 C.ar     1 ZINC000003799072    0.1300
33     O33    -0.6038   -2.7635   -0.0019 O.3      1 ZINC000003799072   -0.4900
34     H34     0.8606    1.8301    0.0037 H        1 ZINC000003799072    0.3900
35     H35     0.5123   -0.3556   -0.8948 H        1 ZINC000003799072    0.0700
36     H36     0.5293   -0.3651    0.8851 H        1 ZINC000003799072    0.0700
37     H37    -2.2912    1.4214    0.0214 H        1 ZINC000003799072    0.1400
38     H38    -6.3390   -0.5435   -0.3903 H        1 ZINC000003799072    0.3900
39     H39    -5.7033    0.1254    1.9195 H        1 ZINC000003799072    0.1400
40     H40    -4.5663    1.4870    2.0661 H        1 ZINC000003799072    0.1400
41     H41    -7.2734    1.2865    3.3128 H        1 ZINC000003799072    0.1300
42     H42    -6.1363    2.6481    3.4594 H        1 ZINC000003799072    0.1300
43     H43    -7.8202    4.1630    2.4502 H        1 ZINC000003799072    0.0900
44     H44    -8.9573    2.8014    2.3036 H        1 ZINC000003799072    0.0900
45     H45    -8.9087    2.4959    4.7639 H        1 ZINC000003799072    0.0800
46     H46    -7.7716    3.8575    4.9105 H        1 ZINC000003799072    0.0800
47     H47    -9.4555    5.3724    3.9013 H        1 ZINC000003799072    0.0700
48     H48   -10.5925    4.0108    3.7547 H        1 ZINC000003799072    0.0700
49     H49   -10.5440    3.7053    6.2150 H        1 ZINC000003799072    0.0700
50     H50    -9.4069    5.0668    6.3616 H        1 ZINC000003799072    0.0700
51     H51   -11.0908    6.5817    5.3524 H        1 ZINC000003799072    0.0500
52     H52   -12.2278    5.2201    5.2058 H        1 ZINC000003799072    0.0500
53     H53   -12.6518    7.7240    6.8506 H        1 ZINC000003799072    0.0500
54     H54   -13.7888    6.3624    6.7040 H        1 ZINC000003799072    0.0500
55     H55   -13.5898    5.9341    9.1382 H        1 ZINC000003799072    0.0700
56     H56   -12.4528    7.2956    9.2849 H        1 ZINC000003799072    0.0700
57     H57   -14.2022    8.8457    8.4570 H        1 ZINC000003799072    0.0700
58     H58   -15.3392    7.4842    8.3103 H        1 ZINC000003799072    0.0700
59     H59   -15.1402    7.0558   10.7446 H        1 ZINC000003799072    0.0700
60     H60   -14.0032    8.4174   10.8912 H        1 ZINC000003799072    0.0700
61     H61   -14.7714   10.7096   10.6461 H        1 ZINC000003799072    0.1200
62     H62   -16.6655   12.2688   10.8565 H        1 ZINC000003799072    0.1200
63     H63   -18.9747   11.4160   10.7955 H        1 ZINC000003799072    0.1200
64     H64   -19.3898    9.0042   10.5232 H        1 ZINC000003799072    0.1200
65     H65   -17.4957    7.4456   10.3082 H        1 ZINC000003799072    0.1200
66     H66    -5.0234   -1.8538    0.0414 H        1 ZINC000003799072    0.1300
67     H67    -3.1358   -3.4339    0.0242 H        1 ZINC000003799072    0.1400
68     H68    -0.3117   -3.0177   -0.8879 H        1 ZINC000003799072    0.4000
@<TRIPOS>BOND
1     1     2     1
2     1     34    1
3     2     3     1
4     2     35    1
5     2     36    1
6     3     32    ar
7     3     4     ar
8     4     5     ar
9     4     37    1
10    5     6     1
11    5     30    ar
12    6     7     1
13    6     8     1
14    6     9     1
15    8     38    1
16    9     10    1
17    9     39    1
18    9     40    1
19    10    11    1
20    10    12    1
21    10    13    1
22    13    14    1
23    13    41    1
24    13    42    1
25    14    15    1
26    14    43    1
27    14    44    1
28    15    16    1
29    15    45    1
30    15    46    1
31    16    17    1
32    16    47    1
33    16    48    1
34    17    18    1
35    17    49    1
36    17    50    1
37    18    19    1
38    18    51    1
39    18    52    1
40    19    20    1
41    20    21    1
42    20    53    1
43    20    54    1
44    21    22    1
45    21    55    1
46    21    56    1
47    22    23    1
48    22    57    1
49    22    58    1
50    23    24    1
51    23    59    1
52    23    60    1
53    24    29    ar
54    24    25    ar
55    25    26    ar
56    25    61    1
57    26    27    ar
58    26    62    1
59    27    28    ar
60    27    63    1
61    28    29    ar
62    28    64    1
63    29    65    1
64    30    31    ar
65    30    66    1
66    31    32    ar
67    31    67    1
68    32    33    1
69    33    68    1
@<TRIPOS>SUBSTRUCTURE
1   ZINC000003799072 1     RESIDUE    1   A     ZIN   1
