@<TRIPOS>MOLECULE
ZINC000004097426
31   31    0    0    0
SMALL
USER_CHARGES
NO_NAME
@<TRIPOS>ATOM
1 O1       -0.0359     1.4206     0.2750 O.3    1 <0>      -0.5700
2 C2       -0.0054     0.0158     0.0146 C.3    1 <0>       0.0600
3 C3       -1.4333    -0.5336     0.0129 C.3    1 <0>       0.0700
4 N4       -2.1438    -0.0470    -1.1772 N.3    1 <0>      -0.5300
5 C5       -1.8071     1.3552    -1.4544 C.3    1 <0>       0.0200
6 C6       -2.4478     1.7832    -2.7767 C.3    1 <0>       0.0700
7 H7       -2.0621     1.1627    -3.5856 H      1 <0>       0.0700
8 O8       -2.1361     3.1534    -3.0363 O.3    1 <0>      -0.5700
9 C9       -3.9664     1.6127    -2.6812 C.3    1 <0>       0.0800
10 H10      -4.3574     2.2624    -1.8982 H      1 <0>       0.0700
11 O11      -4.5654     1.9584    -3.9318 O.3    1 <0>      -0.5600
12 C12      -4.2882     0.1542    -2.3441 C.3    1 <0>       0.1300
13 H13      -3.9315    -0.4920    -3.1462 H      1 <0>       0.0800
14 O14      -5.7013    -0.0014    -2.1989 O.3    1 <0>      -0.5600
15 C15      -3.5942    -0.2266    -1.0343 C.3    1 <0>       0.0900
16 H16      -3.9616     0.4107    -0.2300 H      1 <0>       0.0600
17 C17      -3.8964    -1.6896    -0.7039 C.3    1 <0>       0.0800
18 O18      -3.3465    -2.0125     0.5749 O.3    1 <0>      -0.5700
19 H19       0.8369     1.8367     0.2909 H      1 <0>       0.3800
20 H20       0.4541    -0.1636    -0.9574 H      1 <0>       0.0500
21 H21       0.5756    -0.4848     0.7892 H      1 <0>       0.0600
22 H22      -1.4033    -1.6231    -0.0020 H      1 <0>       0.1100
23 H23      -1.9534    -0.1967     0.9096 H      1 <0>       0.0500
24 H24      -2.1829     1.9851    -0.6482 H      1 <0>       0.0500
25 H25      -0.7246     1.4619    -1.5240 H      1 <0>       0.1000
26 H26      -1.1889     3.3349    -3.1066 H      1 <0>       0.3900
27 H27      -4.3979     2.8694    -4.2096 H      1 <0>       0.3900
28 H28      -6.2055     0.2257    -2.9922 H      1 <0>       0.3900
29 H29      -4.9755    -1.8423    -0.6845 H      1 <0>       0.0600
30 H30      -3.4521    -2.3329    -1.4634 H      1 <0>       0.0600
31 H31      -3.5005    -2.9268     0.8498 H      1 <0>       0.3800
@<TRIPOS>BOND
1    1    2 1
2    1   19 1
3    2    3 1
4    2   20 1
5    2   21 1
6    3    4 1
7    3   22 1
8    3   23 1
9    4   15 1
10    4    5 1
11    5    6 1
12    5   24 1
13    5   25 1
14    6    7 1
15    6    8 1
16    6    9 1
17    8   26 1
18    9   10 1
19    9   11 1
20    9   12 1
21   11   27 1
22   12   13 1
23   12   14 1
24   12   15 1
25   14   28 1
26   15   16 1
27   15   17 1
28   17   18 1
29   17   29 1
30   17   30 1
31   18   31 1
