@<TRIPOS>MOLECULE
ZINC000035653009
46    49    1     0     0
SMALL
USER_CHARGES
@<TRIPOS>ATOM
1      C1     -0.0184    1.5028    0.0103 C.3      1 ZINC000035653009   -0.1400
2      C2      0.0021   -0.0041    0.0020 C.2      1 ZINC000035653009    0.4500
3      O3      1.0599   -0.5958   -0.0113 O.2      1 ZINC000035653009   -0.4800
4      O4     -1.1510   -0.6909    0.0093 O.3      1 ZINC000035653009   -0.2400
5      C5     -1.0615   -2.0467    0.0012 C.2      1 ZINC000035653009   -0.0500
6      C6     -2.0994   -2.8872    0.0013 C.2      1 ZINC000035653009   -0.1300
7      C7     -1.7753   -4.2398   -0.0081 C.2      1 ZINC000035653009   -0.0900
8      C8     -0.4494   -4.4789   -0.0149 C.2      1 ZINC000035653009   -0.2200
9      C9      0.1598   -5.8653   -0.0245 C.3      1 ZINC000035653009   -0.0400
10     C10    -0.9330   -6.8681    0.3650 C.3      1 ZINC000035653009    0.0500
11     N11    -2.1355   -6.6045   -0.4380 N.3      1 ZINC000035653009   -0.5200
12     C12    -3.0621   -7.7433   -0.3879 C.3      1 ZINC000035653009    0.0900
13     H13    -3.3634   -7.9214    0.6444 H        1 ZINC000035653009    0.0800
14     C14    -4.2801   -7.4370   -1.2208 C.2      1 ZINC000035653009    0.3900
15     O15    -4.2315   -6.5783   -2.0685 O.2      1 ZINC000035653009   -0.4200
16     C16    -5.5587   -8.2022   -0.9959 C.3      1 ZINC000035653009   -0.2300
17     C17    -6.8731   -7.4246   -1.0884 C.3      1 ZINC000035653009   -0.1500
18     C18    -6.4831   -8.4025   -2.1985 C.3      1 ZINC000035653009   -0.1500
19     C19    -2.3783   -8.9716   -0.9307 C.ar     1 ZINC000035653009   -0.1200
20     C20    -1.2620   -8.8427   -1.7348 C.ar     1 ZINC000035653009   -0.0600
21     C21    -0.6344   -9.9695   -2.2330 C.ar     1 ZINC000035653009   -0.1300
22     C22    -1.1230  -11.2260   -1.9278 C.ar     1 ZINC000035653009   -0.0800
23     C23    -2.2397  -11.3574   -1.1240 C.ar     1 ZINC000035653009   -0.1500
24     C24    -2.8650  -10.2301   -0.6192 C.ar     1 ZINC000035653009    0.1100
25     F25    -3.9567  -10.3573    0.1665 F        1 ZINC000035653009   -0.1300
26     C26    -2.8003   -5.3658   -0.0117 C.3      1 ZINC000035653009    0.1100
27     S27     0.4380   -2.9636   -0.0187 S.3      1 ZINC000035653009    0.2100
28     H28     1.0042    1.8801    0.0026 H        1 ZINC000035653009    0.1100
29     H29    -0.5455    1.8639   -0.8728 H        1 ZINC000035653009    0.1100
30     H30    -0.5286    1.8543    0.9071 H        1 ZINC000035653009    0.1100
31     H31    -3.1220   -2.5398    0.0085 H        1 ZINC000035653009    0.1500
32     H32     0.5330   -6.0966   -1.0222 H        1 ZINC000035653009    0.0900
33     H33     0.9770   -5.9133    0.6952 H        1 ZINC000035653009    0.0800
34     H34    -0.5820   -7.8822    0.1738 H        1 ZINC000035653009    0.0900
35     H35    -1.1696   -6.7566    1.4232 H        1 ZINC000035653009    0.0500
36     H36    -5.5013   -9.0092   -0.2653 H        1 ZINC000035653009    0.1300
37     H37    -7.6807   -7.7197   -0.4185 H        1 ZINC000035653009    0.1100
38     H38    -6.8130   -6.3594   -1.3119 H        1 ZINC000035653009    0.1000
39     H39    -6.1664   -7.9807   -3.1524 H        1 ZINC000035653009    0.1000
40     H40    -7.0341   -9.3410   -2.2590 H        1 ZINC000035653009    0.1100
41     H41    -0.8798   -7.8615   -1.9745 H        1 ZINC000035653009    0.1500
42     H42     0.2381   -9.8678   -2.8614 H        1 ZINC000035653009    0.1300
43     H43    -0.6321  -12.1054   -2.3178 H        1 ZINC000035653009    0.1300
44     H44    -2.6217  -12.3392   -0.8863 H        1 ZINC000035653009    0.1400
45     H45    -3.2058   -5.4949    0.9918 H        1 ZINC000035653009    0.0500
46     H46    -3.6054   -5.1251   -0.7060 H        1 ZINC000035653009    0.1000
@<TRIPOS>BOND
1     1     2     1
2     1     28    1
3     1     29    1
4     1     30    1
5     2     3     2
6     2     4     1
7     4     5     1
8     5     27    1
9     5     6     2
10    6     7     1
11    6     31    1
12    7     26    1
13    7     8     2
14    8     9     1
15    8     27    1
16    9     10    1
17    9     32    1
18    9     33    1
19    10    11    1
20    10    34    1
21    10    35    1
22    11    12    1
23    11    26    1
24    12    13    1
25    12    14    1
26    12    19    1
27    14    15    2
28    14    16    1
29    16    18    1
30    16    17    1
31    16    36    1
32    17    18    1
33    17    37    1
34    17    38    1
35    18    39    1
36    18    40    1
37    19    24    ar
38    19    20    ar
39    20    21    ar
40    20    41    1
41    21    22    ar
42    21    42    1
43    22    23    ar
44    22    43    1
45    23    24    ar
46    23    44    1
47    24    25    1
48    26    45    1
49    26    46    1
@<TRIPOS>SUBSTRUCTURE
1   ZINC000035653009 1     RESIDUE    1   A     ZIN   1
