@<TRIPOS>MOLECULE
ZINC000000136138
29    30    1     0     0
SMALL
USER_CHARGES
@<TRIPOS>ATOM
1      C1      0.0702    1.3892   -0.0739 C.3      1 ZINC000000136138    0.0200
2      O2     -0.0148   -0.0357   -0.0061 O.3      1 ZINC000000136138   -0.3100
3      C3      0.6115   -0.6414    1.0341 C.ar     1 ZINC000000136138    0.1600
4      C4      1.2910    0.1262    1.9757 C.ar     1 ZINC000000136138   -0.2200
5      C5      1.9254   -0.4720    3.0264 C.ar     1 ZINC000000136138   -0.0300
6      C6      1.8954   -1.8642    3.1632 C.ar     1 ZINC000000136138   -0.2200
7      C7      2.5782   -2.5105    4.2954 C.2      1 ZINC000000136138    0.4600
8      O8      2.0849   -2.4701    5.4064 O.2      1 ZINC000000136138   -0.4400
9      C9      3.8636   -3.2089    4.0824 C.ar     1 ZINC000000136138   -0.1600
10     C10     4.4547   -3.9239    5.1260 C.ar     1 ZINC000000136138   -0.0600
11     C11     5.6542   -4.5731    4.9204 C.ar     1 ZINC000000136138   -0.1300
12     C12     6.2719   -4.5167    3.6834 C.ar     1 ZINC000000136138   -0.0900
13     C13     5.6917   -3.8099    2.6448 C.ar     1 ZINC000000136138   -0.1300
14     C14     4.4893   -3.1612    2.8349 C.ar     1 ZINC000000136138   -0.0600
15     C15     1.2101   -2.6424    2.2151 C.ar     1 ZINC000000136138    0.1800
16     O16     1.1748   -3.9928    2.3382 O.3      1 ZINC000000136138   -0.4900
17     C17     0.5670   -2.0229    1.1576 C.ar     1 ZINC000000136138   -0.1800
18     H18     1.1159    1.6877   -0.1477 H        1 ZINC000000136138    0.0600
19     H19    -0.4717    1.7442   -0.9505 H        1 ZINC000000136138    0.1100
20     H20    -0.3688    1.8225    0.8247 H        1 ZINC000000136138    0.0600
21     H21     1.3170    1.2011    1.8744 H        1 ZINC000000136138    0.1400
22     H22     2.4512    0.1301    3.7526 H        1 ZINC000000136138    0.1400
23     H23     3.9740   -3.9681    6.0921 H        1 ZINC000000136138    0.1300
24     H24     6.1125   -5.1265    5.7267 H        1 ZINC000000136138    0.1300
25     H25     7.2114   -5.0262    3.5280 H        1 ZINC000000136138    0.1300
26     H26     6.1791   -3.7699    1.6819 H        1 ZINC000000136138    0.1300
27     H27     4.0375   -2.6099    2.0235 H        1 ZINC000000136138    0.1300
28     H28     0.4266   -4.3211    2.8554 H        1 ZINC000000136138    0.4000
29     H29     0.0379   -2.6144    0.4251 H        1 ZINC000000136138    0.1500
@<TRIPOS>BOND
1     1     2     1
2     1     18    1
3     1     19    1
4     1     20    1
5     2     3     1
6     3     17    ar
7     3     4     ar
8     4     5     ar
9     4     21    1
10    5     6     ar
11    5     22    1
12    6     7     1
13    6     15    ar
14    7     8     2
15    7     9     1
16    9     14    ar
17    9     10    ar
18    10    11    ar
19    10    23    1
20    11    12    ar
21    11    24    1
22    12    13    ar
23    12    25    1
24    13    14    ar
25    13    26    1
26    14    27    1
27    15    16    1
28    15    17    ar
29    16    28    1
30    17    29    1
@<TRIPOS>SUBSTRUCTURE
1   ZINC000000136138 1     RESIDUE    1   A     ZIN   1
