@<TRIPOS>MOLECULE
ZINC000004658560
11    10    1     0     0
SMALL
USER_CHARGES
@<TRIPOS>ATOM
1      C1     -0.0187    1.5258    0.0104 C.3      1 ZINC000004658560   -0.1600
2      C2      0.0021   -0.0041    0.0020 C.3      1 ZINC000004658560    0.0300
3      H3      0.5123   -0.3556   -0.8948 H        1 ZINC000004658560    0.0500
4      O4     -1.3386   -0.4987    0.0122 O.3      1 ZINC000004658560   -0.5500
5      C5      0.7309   -0.5033    1.2229 C.2      1 ZINC000004658560    0.5000
6      O6      0.1318   -1.1401    2.0727 O.co2    1 ZINC000004658560   -0.6800
7      O7      1.9197   -0.2704    1.3609 O.co2    1 ZINC000004658560   -0.7000
8      H8      1.0039    1.9031    0.0027 H        1 ZINC000004658560    0.0700
9      H9     -0.5459    1.8868   -0.8726 H        1 ZINC000004658560    0.0400
10     H10    -0.5289    1.8773    0.9072 H        1 ZINC000004658560    0.0500
11     H11    -1.8677   -0.2163   -0.7464 H        1 ZINC000004658560    0.3500
@<TRIPOS>BOND
1     1     2     1
2     1     8     1
3     1     9     1
4     1     10    1
5     2     3     1
6     2     4     1
7     2     5     1
8     4     11    1
9     5     6     ar
10    5     7     ar
@<TRIPOS>SUBSTRUCTURE
1   ZINC000004658560 1     RESIDUE    1   A     ZIN   1
