@<TRIPOS>MOLECULE
ZINC000000403618
20   19    0    0    0
SMALL
USER_CHARGES
NO_NAME
@<TRIPOS>ATOM
1 C1       -0.0157     1.3058     0.0092 C.2    1 <0>      -0.1200
2 C2        0.0021    -0.0041     0.0020 C.2    1 <0>      -0.2200
3 C3       -1.2926    -0.7753     0.0102 C.3    1 <0>       0.0600
4 H4       -2.1295    -0.0812    -0.0676 H      1 <0>       0.1400
5 N5       -1.4018    -1.5354     1.2625 N.4    1 <0>      -0.6300
6 H6       -1.3846    -0.8987     2.0451 H      1 <0>       0.4300
7 H7       -2.2687    -2.0518     1.2680 H      1 <0>       0.4400
8 H8       -0.6272    -2.1779     1.3346 H      1 <0>       0.4300
9 C9       -1.3187    -1.7407    -1.1764 C.3    1 <0>      -0.1200
10 C10      -2.6816    -2.4331    -1.2407 C.3    1 <0>      -0.2000
11 C11      -2.7073    -3.3840    -2.4095 C.2    1 <0>       0.4900
12 O12      -1.7264    -3.4975    -3.1248 O.co2  1 <0>      -0.6900
13 O13      -3.7089    -4.0399    -2.6399 O.co2  1 <0>      -0.6900
14 H14       0.9122     1.8585     0.0033 H      1 <0>       0.1200
15 H15      -0.9582     1.8330     0.0166 H      1 <0>       0.1100
16 H16       0.9446    -0.5313    -0.0098 H      1 <0>       0.1300
17 H17      -1.1488    -1.1865    -2.0995 H      1 <0>       0.1100
18 H18      -0.5363    -2.4895    -1.0529 H      1 <0>       0.0900
19 H19      -2.8515    -2.9872    -0.3176 H      1 <0>       0.0500
20 H20      -3.4640    -1.6843    -1.3643 H      1 <0>       0.0700
@<TRIPOS>BOND
1    1    2 2
2    1   14 1
3    1   15 1
4    2    3 1
5    2   16 1
6    3    4 1
7    3    5 1
8    3    9 1
9    5    6 1
10    5    7 1
11    5    8 1
12    9   10 1
13    9   17 1
14    9   18 1
15   10   11 1
16   10   19 1
17   10   20 1
18   11   12 ar
19   11   13 ar
