@<TRIPOS>MOLECULE
ZINC000100296828
49   51    0    0    0
SMALL
USER_CHARGES
NO_NAME
@<TRIPOS>ATOM
1 C1       -1.9189     1.9475     1.6115 C.3    1 <0>      -0.1100
2 C2       -1.9274     0.4533     1.8077 C.ar   1 <0>      -0.0900
3 C3       -1.2752    -0.3642     0.9022 C.ar   1 <0>      -0.0800
4 C4       -1.2796    -1.7331     1.0768 C.ar   1 <0>      -0.0200
5 C5       -1.9425    -2.2917     2.1683 C.ar   1 <0>      -0.0600
6 C6       -1.9504    -3.7620     2.3616 C.2    1 <0>       0.0100
7 C7       -1.3422    -4.3004     3.4255 C.2    1 <0>      -0.1500
8 C8       -0.6494    -3.4125     4.4269 C.3    1 <0>       0.0700
9 N9       -1.1820    -3.6800     5.7695 N.3    1 <0>      -0.5100
10 C10      -0.7046    -4.9906     6.2801 C.3    1 <0>       0.0300
11 C11      -0.8981    -4.8660     7.8123 C.3    1 <0>      -0.1200
12 C12      -0.5250    -3.3915     8.0890 C.3    1 <0>      -0.1300
13 C13      -0.7046    -2.6711     6.7399 C.3    1 <0>       0.0300
14 C14      -2.6319    -4.6355     1.3765 C.ar   1 <0>       0.1600
15 C15      -2.6397    -6.0190     1.5689 C.ar   1 <0>      -0.1800
16 C16      -3.2783    -6.8285     0.6446 C.ar   1 <0>      -0.0900
17 C17      -3.8917    -6.2342    -0.4466 C.ar   1 <0>      -0.1800
18 C18      -3.8479    -4.8440    -0.5810 C.ar   1 <0>       0.1800
19 C19      -4.4972    -4.2018    -1.7372 C.2    1 <0>      -0.1500
20 C20      -4.3517    -2.8761    -1.9423 C.2    1 <0>      -0.1400
21 C21      -3.1894    -2.1757    -1.3990 C.2    1 <0>       0.5200
22 O22      -2.1685    -2.7977    -1.1339 O.co2  1 <0>      -0.6600
23 O23      -3.2366    -0.9669    -1.2089 O.co2  1 <0>      -0.6900
24 N24      -3.2312    -4.0956     0.3270 N.ar   1 <0>      -0.3700
25 C25      -2.5976    -1.4630     3.0778 C.ar   1 <0>      -0.1100
26 C26      -2.5824    -0.0951     2.8957 C.ar   1 <0>      -0.1400
27 H27      -1.0539     2.3755     2.1180 H      1 <0>       0.0600
28 H28      -1.8652     2.1738     0.5466 H      1 <0>       0.0600
29 H29      -2.8316     2.3738     2.0280 H      1 <0>       0.0600
30 H30      -0.7619     0.0697     0.0568 H      1 <0>       0.1100
31 H31      -0.7707    -2.3705     0.3688 H      1 <0>       0.1300
32 H32      -1.3480    -5.3712     3.5663 H      1 <0>       0.1100
33 H33       0.4213    -3.6161     4.4135 H      1 <0>       0.0400
34 H34      -0.8239    -2.3681     4.1683 H      1 <0>       0.1000
35 H35      -1.3113    -5.8033     5.8806 H      1 <0>       0.0800
36 H36       0.3474    -5.1385     6.0360 H      1 <0>       0.0400
37 H37      -1.9350    -5.0596     8.0871 H      1 <0>       0.0700
38 H38      -0.2251    -5.5401     8.3422 H      1 <0>       0.0700
39 H39      -1.1939    -2.9659     8.8371 H      1 <0>       0.0700
40 H40       0.5105    -3.3192     8.4216 H      1 <0>       0.0600
41 H41       0.2489    -2.2596     6.4088 H      1 <0>       0.0400
42 H42      -1.4414    -1.8741     6.8397 H      1 <0>       0.0800
43 H43      -2.1524    -6.4529     2.4295 H      1 <0>       0.1200
44 H44      -3.2975    -7.9009     0.7713 H      1 <0>       0.1200
45 H45      -4.3975    -6.8386    -1.1850 H      1 <0>       0.1200
46 H46      -5.0897    -4.7921    -2.4206 H      1 <0>       0.1100
47 H47      -5.0940    -2.3325    -2.5078 H      1 <0>       0.1000
48 H48      -3.1128    -1.8903     3.9253 H      1 <0>       0.1100
49 H49      -3.0897     0.5480     3.5997 H      1 <0>       0.1100
@<TRIPOS>BOND
1    1    2 1
2    1   27 1
3    1   28 1
4    1   29 1
5    2   26 ar
6    2    3 ar
7    3    4 ar
8    3   30 1
9    4    5 ar
10    4   31 1
11    5    6 1
12    5   25 ar
13    6    7 2
14    6   14 1
15    7    8 1
16    7   32 1
17    8    9 1
18    8   33 1
19    8   34 1
20    9   13 1
21    9   10 1
22   10   11 1
23   10   35 1
24   10   36 1
25   11   12 1
26   11   37 1
27   11   38 1
28   12   13 1
29   12   39 1
30   12   40 1
31   13   41 1
32   13   42 1
33   14   24 ar
34   14   15 ar
35   15   16 ar
36   15   43 1
37   16   17 ar
38   16   44 1
39   17   18 ar
40   17   45 1
41   18   19 1
42   18   24 ar
43   19   20 2
44   19   46 1
45   20   21 1
46   20   47 1
47   21   22 ar
48   21   23 ar
49   25   26 ar
50   25   48 1
51   26   49 1
