@<TRIPOS>MOLECULE
ZINC000004215234
50    53    1     0     0
SMALL
USER_CHARGES
@<TRIPOS>ATOM
1      C1     -1.2823   -9.0624   -1.1497 C.3      1 ZINC000004215234    0.0300
2      O2     -1.5884   -7.9912   -0.2549 O.3      1 ZINC000004215234   -0.1800
3      N3     -1.5050   -6.7065   -0.8446 N.2      1 ZINC000004215234   -0.2700
4      C4     -1.7608   -5.6454   -0.1332 C.2      1 ZINC000004215234    0.1800
5      C5     -2.2506   -5.7865    1.2582 C.2      1 ZINC000004215234    0.5400
6      O6     -2.3298   -6.8877    1.7657 O.2      1 ZINC000004215234   -0.5000
7      N7     -2.6082   -4.6934    1.9609 N.am     1 ZINC000004215234   -0.6800
8      C8     -3.1934   -4.8399    3.2959 C.3      1 ZINC000004215234    0.1200
9      H9     -2.9014   -5.7680    3.7872 H        1 ZINC000004215234    0.1500
10     C10    -4.6881   -4.5712    3.3392 C.2      1 ZINC000004215234    0.5300
11     O11    -5.6710   -5.1906    2.9901 O.2      1 ZINC000004215234   -0.4200
12     N12    -4.4887   -3.3747    3.9186 N.am     1 ZINC000004215234   -0.5600
13     C13    -5.1950   -2.1762    4.1231 C.2      1 ZINC000004215234    0.1900
14     C14    -6.6018   -2.1924    4.2535 C.2      1 ZINC000004215234    0.4400
15     O15    -7.2588   -1.0653    4.5258 O.co2    1 ZINC000004215234   -0.6600
16     O16    -7.2717   -3.3348    4.1043 O.co2    1 ZINC000004215234   -0.6600
17     C17    -4.5098   -0.9943    4.1952 C.2      1 ZINC000004215234   -0.1800
18     C18    -5.2884    0.1672    4.3202 C.2      1 ZINC000004215234   -0.0400
19     C19    -6.0035    0.6245    3.2570 C.2      1 ZINC000004215234   -0.0700
20     C20    -5.8587    0.0104    1.9897 C.2      1 ZINC000004215234   -0.1600
21     C21    -6.6055    0.2769    0.8701 C.2      1 ZINC000004215234    0.0400
22     C22    -7.7166    1.2947    0.8451 C.3      1 ZINC000004215234   -0.0700
23     N23    -6.2636   -0.4344   -0.1754 N.2      1 ZINC000004215234   -0.4600
24     C24    -5.2931   -1.2772   -0.0328 C.2      1 ZINC000004215234   -0.0600
25     S25    -4.6816   -1.2294    1.5625 S.3      1 ZINC000004215234    0.1800
26     C26    -3.0301   -0.7957    4.1569 C.3      1 ZINC000004215234   -0.0300
27     S27    -2.1640   -2.2014    3.3963 S.3      1 ZINC000004215234   -0.2200
28     C28    -3.0295   -3.6040    4.1751 C.3      1 ZINC000004215234    0.1300
29     H29    -2.7485   -3.7882    5.2120 H        1 ZINC000004215234    0.1500
30     C30    -1.5623   -4.3002   -0.7143 C.2      1 ZINC000004215234    0.1400
31     C31    -1.2589   -4.1124   -2.0138 C.2      1 ZINC000004215234   -0.2300
32     S32    -1.1075   -2.3807   -2.3012 S.3      1 ZINC000004215234    0.0900
33     C33    -1.4746   -2.0636   -0.6087 C.2      1 ZINC000004215234    0.3700
34     N34    -1.5438   -0.8084   -0.0278 N.pl3    1 ZINC000004215234   -0.8000
35     N35    -1.6760   -3.1855    0.0086 N.2      1 ZINC000004215234   -0.5400
36     H36    -1.9801   -9.0470   -1.9870 H        1 ZINC000004215234    0.0500
37     H37    -0.2648   -8.9450   -1.5225 H        1 ZINC000004215234    0.0500
38     H38    -1.3687  -10.0124   -0.6223 H        1 ZINC000004215234    0.1000
39     H39    -2.4781   -3.8097    1.5827 H        1 ZINC000004215234    0.4300
40     H40    -5.3197    0.6977    5.2604 H        1 ZINC000004215234    0.1200
41     H41    -6.6816    1.4561    3.3797 H        1 ZINC000004215234    0.1300
42     H42    -7.3123    2.2671    0.5638 H        1 ZINC000004215234    0.0700
43     H43    -8.4711    0.9912    0.1194 H        1 ZINC000004215234    0.0700
44     H44    -8.1699    1.3620    1.8341 H        1 ZINC000004215234    0.0700
45     H45    -4.9180   -1.9202   -0.8153 H        1 ZINC000004215234    0.1700
46     H46    -2.8094    0.1062    3.5859 H        1 ZINC000004215234    0.1200
47     H47    -2.6648   -0.6649    5.1755 H        1 ZINC000004215234    0.1000
48     H48    -1.1301   -4.8899   -2.7522 H        1 ZINC000004215234    0.1900
49     H49    -1.3829   -0.0163   -0.5640 H        1 ZINC000004215234    0.4200
50     H50    -1.7531   -0.7214    0.9154 H        1 ZINC000004215234    0.4200
@<TRIPOS>BOND
1     1     2     1
2     1     36    1
3     1     37    1
4     1     38    1
5     2     3     1
6     3     4     2
7     4     5     1
8     4     30    1
9     5     6     2
10    5     7     am
11    7     8     1
12    7     39    1
13    8     9     1
14    8     28    1
15    8     10    1
16    10    11    2
17    10    12    am
18    12    28    1
19    12    13    1
20    13    14    1
21    13    17    2
22    14    15    ar
23    14    16    ar
24    17    18    1
25    17    26    1
26    18    19    2
27    18    40    1
28    19    20    1
29    19    41    1
30    20    25    1
31    20    21    2
32    21    22    1
33    21    23    1
34    22    42    1
35    22    43    1
36    22    44    1
37    23    24    2
38    24    25    1
39    24    45    1
40    26    27    1
41    26    46    1
42    26    47    1
43    27    28    1
44    28    29    1
45    30    35    1
46    30    31    2
47    31    32    1
48    31    48    1
49    32    33    1
50    33    34    1
51    33    35    2
52    34    49    1
53    34    50    1
@<TRIPOS>SUBSTRUCTURE
1   ZINC000004215234 1     RESIDUE    1   A     ZIN   1
