@<TRIPOS>MOLECULE
ZINC000000000469
33   33    0    0    0
SMALL
USER_CHARGES
NO_NAME
@<TRIPOS>ATOM
1 C1       -0.0187     1.5258     0.0104 C.3    1 <0>      -0.1900
2 C2        0.0021    -0.0041     0.0020 C.3    1 <0>       0.0200
3 C3        0.7421    -0.5109     1.2415 C.3    1 <0>      -0.1900
4 N4       -1.3761    -0.5125     0.0124 N.4    1 <0>      -0.5000
5 H5       -1.8225    -0.2564     0.8803 H      1 <0>       0.4300
6 H6       -1.8879    -0.1129    -0.7598 H      1 <0>       0.4300
7 C7       -1.3591    -1.9758    -0.1163 C.3    1 <0>      -0.0500
8 C8       -2.7945    -2.5054    -0.1054 C.3    1 <0>       0.1400
9 H9       -3.3047    -2.1538     0.7914 H      1 <0>       0.1300
10 O10      -3.4857    -2.0320    -1.2631 O.3    1 <0>      -0.5500
11 C11      -2.7741    -4.0122    -0.1137 C.ar   1 <0>      -0.1100
12 C12      -2.5625    -4.6926    -1.2976 C.ar   1 <0>      -0.1500
13 C13      -2.5432    -6.0802    -1.3078 C.ar   1 <0>       0.1400
14 O14      -2.3346    -6.7488    -2.4724 O.3    1 <0>      -0.4900
15 C15      -2.7365    -6.7837    -0.1290 C.ar   1 <0>      -0.1600
16 C16      -2.9486    -6.0987     1.0575 C.ar   1 <0>       0.1400
17 O17      -3.1379    -6.7855     2.2148 O.3    1 <0>      -0.4900
18 C18      -2.9614    -4.7110     1.0635 C.ar   1 <0>      -0.1400
19 H19       1.0039     1.9031     0.0027 H      1 <0>       0.1100
20 H20      -0.5459     1.8868    -0.8726 H      1 <0>       0.0800
21 H21      -0.5289     1.8773     0.9072 H      1 <0>       0.0800
22 H22       0.5123    -0.3556    -0.8948 H      1 <0>       0.1400
23 H23       0.2319    -0.1594     2.1383 H      1 <0>       0.0800
24 H24       0.7568    -1.6008     1.2356 H      1 <0>       0.0800
25 H25       1.7647    -0.1336     1.2338 H      1 <0>       0.1100
26 H26      -0.8769    -2.2525    -1.0538 H      1 <0>       0.1400
27 H27      -0.8062    -2.4075     0.7180 H      1 <0>       0.1500
28 H28      -3.0863    -2.3073    -2.0996 H      1 <0>       0.3900
29 H29      -2.4123    -4.1441    -2.2157 H      1 <0>       0.1300
30 H30      -1.4037    -6.9313    -2.6598 H      1 <0>       0.4000
31 H31      -2.7222    -7.8636    -0.1350 H      1 <0>       0.1500
32 H32      -2.3220    -6.9730     2.6988 H      1 <0>       0.4000
33 H33      -3.1265    -4.1769     1.9875 H      1 <0>       0.1400
@<TRIPOS>BOND
1    1    2 1
2    1   19 1
3    1   20 1
4    1   21 1
5    2    3 1
6    2    4 1
7    2   22 1
8    3   23 1
9    3   24 1
10    3   25 1
11    4    5 1
12    4    6 1
13    4    7 1
14    7    8 1
15    7   26 1
16    7   27 1
17    8    9 1
18    8   10 1
19    8   11 1
20   10   28 1
21   11   18 ar
22   11   12 ar
23   12   13 ar
24   12   29 1
25   13   14 1
26   13   15 ar
27   14   30 1
28   15   16 ar
29   15   31 1
30   16   17 1
31   16   18 ar
32   17   32 1
33   18   33 1
