@<TRIPOS>MOLECULE
ZINC000003607120
48   51    0    0    0
SMALL
USER_CHARGES
NO_NAME
@<TRIPOS>ATOM
1 C1       -0.2404     1.8495    -0.3104 C.3    1 <0>       0.0100
2 O2       -0.2362     0.4448    -0.0482 O.3    1 <0>      -0.3100
3 C3       -1.4419    -0.1862    -0.0416 C.ar   1 <0>       0.0500
4 C4       -2.1704    -0.2852     1.1365 C.ar   1 <0>       0.1800
5 N5       -1.6611     0.2650     2.3142 N.pl3  1 <0>      -0.6700
6 C6       -0.8071    -0.5290     3.2107 C.3    1 <0>       0.1100
7 C7        0.4639     0.2733     3.5091 C.3    1 <0>       0.0400
8 N8        0.0933     1.6004     4.0183 N.3    1 <0>      -0.6800
9 C9       -0.6476     2.3702     3.0102 C.3    1 <0>       0.0600
10 H10      -0.0492     2.4520     2.1029 H      1 <0>       0.0900
11 C11      -0.9454     3.7692     3.5533 C.3    1 <0>      -0.1400
12 C12      -1.9593     1.6558     2.6883 C.3    1 <0>       0.1100
13 C13      -3.4081    -0.9303     1.1520 C.ar   1 <0>       0.0500
14 F14      -4.1056    -1.0179     2.3057 F      1 <0>      -0.1300
15 C15      -3.9185    -1.4734     0.0063 C.ar   1 <0>      -0.0600
16 C16      -3.1984    -1.3830    -1.1876 C.ar   1 <0>      -0.1600
17 C17      -1.9530    -0.7304    -1.2183 C.ar   1 <0>       0.1900
18 N18      -1.2413    -0.6421    -2.3981 N.pl3  1 <0>      -0.4600
19 C19       0.0522     0.0457    -2.3872 C.3    1 <0>       0.0300
20 C20       0.8340     0.1010    -3.7012 C.3    1 <0>      -0.1800
21 C21       0.1587     1.3624    -3.1591 C.3    1 <0>      -0.1900
22 C22      -1.6825    -1.1583    -3.5506 C.2    1 <0>       0.1500
23 C23      -2.8913    -1.8220    -3.6443 C.2    1 <0>      -0.3000
24 C24      -3.3405    -2.3747    -4.9260 C.2    1 <0>       0.5400
25 O25      -2.6432    -2.2501    -5.9244 O.co2  1 <0>      -0.7000
26 O26      -4.4129    -2.9607    -4.9976 O.co2  1 <0>      -0.6600
27 C27      -3.7237    -1.9594    -2.4368 C.2    1 <0>       0.4200
28 O28      -4.7970    -2.5360    -2.4678 O.2    1 <0>      -0.4400
29 H29       0.7819     2.2267    -0.2865 H      1 <0>       0.0900
30 H30      -0.6730     2.0343    -1.2936 H      1 <0>       0.0600
31 H31      -0.8335     2.3590     0.4491 H      1 <0>       0.0500
32 H32      -1.3396    -0.7304     4.1402 H      1 <0>       0.0500
33 H33      -0.5418    -1.4687     2.7264 H      1 <0>       0.0800
34 H34       1.0575    -0.2510     4.2580 H      1 <0>       0.0800
35 H35       1.0469     0.3843     2.5948 H      1 <0>       0.0800
36 H36      -0.4344     1.5245     4.8750 H      1 <0>       0.3400
37 H37      -0.0086     4.2772     3.7819 H      1 <0>       0.0700
38 H38      -1.4952     4.3400     2.8050 H      1 <0>       0.0600
39 H39      -1.5447     3.6869     4.4601 H      1 <0>       0.0500
40 H40      -2.4575     2.1605     1.8606 H      1 <0>       0.0700
41 H41      -2.6048     1.6621     3.5666 H      1 <0>       0.0500
42 H42      -4.8765    -1.9717     0.0239 H      1 <0>       0.1500
43 H43       0.6246    -0.0442    -1.4640 H      1 <0>       0.1800
44 H44       1.9211     0.0474    -3.6427 H      1 <0>       0.1100
45 H45       0.3859    -0.3743    -4.5738 H      1 <0>       0.1100
46 H46      -0.7336     1.7169    -3.6750 H      1 <0>       0.1000
47 H47       0.8015     2.1386    -2.7439 H      1 <0>       0.1100
48 H48      -1.0745    -1.0527    -4.4369 H      1 <0>       0.1700
@<TRIPOS>BOND
1    1    2 1
2    1   29 1
3    1   30 1
4    1   31 1
5    2    3 1
6    3   17 ar
7    3    4 ar
8    4    5 1
9    4   13 ar
10    5   12 1
11    5    6 1
12    6    7 1
13    6   32 1
14    6   33 1
15    7    8 1
16    7   34 1
17    7   35 1
18    8    9 1
19    8   36 1
20    9   10 1
21    9   11 1
22    9   12 1
23   11   37 1
24   11   38 1
25   11   39 1
26   12   40 1
27   12   41 1
28   13   14 1
29   13   15 ar
30   15   16 ar
31   15   42 1
32   16   27 1
33   16   17 ar
34   17   18 1
35   18   19 1
36   18   22 1
37   19   21 1
38   19   20 1
39   19   43 1
40   20   21 1
41   20   44 1
42   20   45 1
43   21   46 1
44   21   47 1
45   22   23 2
46   22   48 1
47   23   24 1
48   23   27 1
49   24   25 ar
50   24   26 ar
51   27   28 2
