@<TRIPOS>MOLECULE
ZINC000000001267
37   38    0    0    0
SMALL
USER_CHARGES
NO_NAME
@<TRIPOS>ATOM
1 C1       -0.6044     1.5831     0.3291 C.3    1 <0>       0.0300
2 O2       -0.3541     0.1564     0.2280 O.3    1 <0>      -0.3600
3 C3       -1.4257    -0.6435     0.1121 C.2    1 <0>       0.4600
4 O4       -2.5361    -0.1674     0.0957 O.2    1 <0>      -0.4600
5 C5       -1.2439    -2.1355     0.0025 C.3    1 <0>      -0.0500
6 H6       -0.6474    -2.3649    -0.8805 H      1 <0>       0.1400
7 C7       -2.5921    -2.7985    -0.1160 C.ar   1 <0>      -0.1400
8 C8       -3.4835    -2.7455     0.9392 C.ar   1 <0>      -0.1000
9 C9       -4.7201    -3.3536     0.8305 C.ar   1 <0>      -0.1100
10 C10      -5.0655    -4.0143    -0.3336 C.ar   1 <0>      -0.0900
11 C11      -4.1744    -4.0665    -1.3892 C.ar   1 <0>      -0.1100
12 C12      -2.9395    -3.4547    -1.2820 C.ar   1 <0>      -0.1000
13 C13      -0.5281    -2.6551     1.2508 C.3    1 <0>       0.0400
14 H14      -1.0725    -2.3375     2.1401 H      1 <0>       0.1400
15 C15       0.8935    -2.0905     1.2951 C.3    1 <0>      -0.1500
16 C16       1.6057    -2.6130     2.5460 C.3    1 <0>      -0.1400
17 C17       1.5897    -4.1442     2.5285 C.3    1 <0>      -0.1500
18 C18       0.1424    -4.6328     2.4385 C.3    1 <0>      -0.0100
19 N19      -0.4743    -4.1214     1.2086 N.4    1 <0>      -0.5000
20 H20      -1.4104    -4.4884     1.1252 H      1 <0>       0.4300
21 H21       0.0727    -4.4137     0.4127 H      1 <0>       0.4300
22 H22       0.3440     2.1130     0.4175 H      1 <0>       0.1100
23 H23      -1.1293     1.9241    -0.5634 H      1 <0>       0.0700
24 H24      -1.2158     1.7833     1.2089 H      1 <0>       0.0700
25 H25      -3.2137    -2.2293     1.8486 H      1 <0>       0.1200
26 H26      -5.4163    -3.3128     1.6551 H      1 <0>       0.1300
27 H27      -6.0314    -4.4900    -0.4183 H      1 <0>       0.1300
28 H28      -4.4442    -4.5830    -2.2985 H      1 <0>       0.1400
29 H29      -2.2433    -3.4955    -2.1067 H      1 <0>       0.1300
30 H30       1.4390    -2.4078     0.4063 H      1 <0>       0.0900
31 H31       0.8518    -1.0018     1.3279 H      1 <0>       0.1300
32 H32       2.6367    -2.2593     2.5529 H      1 <0>       0.1000
33 H33       1.0897    -2.2533     3.4362 H      1 <0>       0.0800
34 H34       2.1497    -4.5042     1.6654 H      1 <0>       0.0900
35 H35       2.0458    -4.5235     3.4430 H      1 <0>       0.1100
36 H36       0.1274    -5.7226     2.4260 H      1 <0>       0.1400
37 H37      -0.4165    -4.2725     3.3022 H      1 <0>       0.1300
@<TRIPOS>BOND
1    1    2 1
2    1   22 1
3    1   23 1
4    1   24 1
5    2    3 1
6    3    4 2
7    3    5 1
8    5    6 1
9    5    7 1
10    5   13 1
11    7   12 ar
12    7    8 ar
13    8    9 ar
14    8   25 1
15    9   10 ar
16    9   26 1
17   10   11 ar
18   10   27 1
19   11   12 ar
20   11   28 1
21   12   29 1
22   13   14 1
23   13   19 1
24   13   15 1
25   15   16 1
26   15   30 1
27   15   31 1
28   16   17 1
29   16   32 1
30   16   33 1
31   17   18 1
32   17   34 1
33   17   35 1
34   18   19 1
35   18   36 1
36   18   37 1
37   19   20 1
38   19   21 1
