@<TRIPOS>MOLECULE
ZINC000001850374
46   48    0    0    0
SMALL
USER_CHARGES
NO_NAME
@<TRIPOS>ATOM
1 C1        2.7796     2.7033    -0.9776 C.3    1 <0>      -0.1200
2 C2        2.4222     1.2319    -0.7584 C.3    1 <0>      -0.0600
3 C3        1.1516     0.9753     0.0543 C.3    1 <0>      -0.1100
4 C4        2.7515     0.2496    -1.8844 C.3    1 <0>      -0.1500
5 H5        3.2227     0.6517    -2.7813 H      1 <0>       0.1400
6 C6        1.7990    -0.8964    -2.1087 C.2    1 <0>       0.4900
7 O7        0.8190    -1.0128    -1.4116 O.2    1 <0>      -0.5000
8 O8        2.0393    -1.7880    -3.0829 O.3    1 <0>      -0.3500
9 C9        1.0793    -2.8658    -3.2416 C.3    1 <0>       0.1100
10 C10       1.5113    -3.7604    -4.3748 C.ar   1 <0>      -0.0600
11 C11       1.0873    -3.4958    -5.6638 C.ar   1 <0>      -0.1300
12 C12       1.4819    -4.3148    -6.7059 C.ar   1 <0>      -0.0800
13 C13       2.3013    -5.3994    -6.4613 C.ar   1 <0>      -0.1300
14 C14       2.7287    -5.6670    -5.1684 C.ar   1 <0>       0.1200
15 O15       3.5354    -6.7331    -4.9251 O.3    1 <0>      -0.2600
16 C16       3.9209    -6.9618    -3.6424 C.ar   1 <0>       0.0800
17 C17       3.1514    -7.7714    -2.8192 C.ar   1 <0>      -0.1300
18 C18       3.5456    -8.0023    -1.5155 C.ar   1 <0>      -0.1100
19 C19       4.7056    -7.4270    -1.0306 C.ar   1 <0>      -0.1200
20 C20       5.4741    -6.6194    -1.8486 C.ar   1 <0>      -0.1100
21 C21       5.0879    -6.3907    -3.1551 C.ar   1 <0>      -0.1200
22 C22       2.3353    -4.8410    -4.1254 C.ar   1 <0>      -0.1700
23 C23       3.5768     0.2411    -0.5961 C.3    1 <0>      -0.1000
24 H24       3.4310    -0.5936     0.0895 H      1 <0>       0.1300
25 C25       4.9791     0.7888    -0.6644 C.2    1 <0>      -0.0900
26 C26       5.7879     0.6526     0.3613 C.2    1 <0>      -0.0400
27 Cl27      5.2417    -0.1584     1.7958 Cl     1 <0>      -0.0300
28 Cl28      7.4033     1.2835     0.2826 Cl     1 <0>      -0.0300
29 H29       3.8540     2.7966    -1.1359 H      1 <0>       0.0600
30 H30       2.2494     3.0795    -1.8525 H      1 <0>       0.0700
31 H31       2.4899     3.2821    -0.1005 H      1 <0>       0.0700
32 H32       0.2860     0.9982    -0.6077 H      1 <0>       0.0700
33 H33       1.2174    -0.0019     0.5327 H      1 <0>       0.0700
34 H34       1.0462     1.7469     0.8170 H      1 <0>       0.0600
35 H35       1.0285    -3.4456    -2.3200 H      1 <0>       0.0800
36 H36       0.0972    -2.4480    -3.4627 H      1 <0>       0.0800
37 H37       0.4465    -2.6482    -5.8572 H      1 <0>       0.1300
38 H38       1.1487    -4.1064    -7.7118 H      1 <0>       0.1400
39 H39       2.6089    -6.0389    -7.2755 H      1 <0>       0.1400
40 H40       2.2448    -8.2204    -3.1973 H      1 <0>       0.1300
41 H41       2.9469    -8.6323    -0.8744 H      1 <0>       0.1300
42 H42       5.0119    -7.6084    -0.0109 H      1 <0>       0.1300
43 H43       6.3796    -6.1710    -1.4673 H      1 <0>       0.1300
44 H44       5.6885    -5.7599    -3.7936 H      1 <0>       0.1300
45 H45       2.6669    -5.0468    -3.1184 H      1 <0>       0.1300
46 H46       5.3189     1.2933    -1.5568 H      1 <0>       0.1500
@<TRIPOS>BOND
1    1    2 1
2    1   29 1
3    1   30 1
4    1   31 1
5    2   23 1
6    2    3 1
7    2    4 1
8    3   32 1
9    3   33 1
10    3   34 1
11    4    5 1
12    4    6 1
13    4   23 1
14    6    7 2
15    6    8 1
16    8    9 1
17    9   10 1
18    9   35 1
19    9   36 1
20   10   22 ar
21   10   11 ar
22   11   12 ar
23   11   37 1
24   12   13 ar
25   12   38 1
26   13   14 ar
27   13   39 1
28   14   15 1
29   14   22 ar
30   15   16 1
31   16   21 ar
32   16   17 ar
33   17   18 ar
34   17   40 1
35   18   19 ar
36   18   41 1
37   19   20 ar
38   19   42 1
39   20   21 ar
40   20   43 1
41   21   44 1
42   22   45 1
43   23   24 1
44   23   25 1
45   25   26 2
46   25   46 1
47   26   27 1
48   26   28 1
