@<TRIPOS>MOLECULE
ZINC000001530599
30    30    1     0     0
SMALL
USER_CHARGES
@<TRIPOS>ATOM
1      C1     -0.0187    1.5258    0.0104 C.3      1 ZINC000001530599   -0.1500
2      C2      0.0021   -0.0041    0.0020 C.3      1 ZINC000001530599   -0.1400
3      C3      0.7182   -0.4975   -1.2568 C.3      1 ZINC000001530599    0.1100
4      N4      0.7381   -1.9623   -1.2648 N.pl3    1 ZINC000001530599   -0.6600
5      C5      1.3322   -2.6353   -2.3043 C.2      1 ZINC000001530599    0.7000
6      O6      1.8982   -1.9465   -3.3192 O.3      1 ZINC000001530599   -0.5000
7      N7      1.3498   -3.9362   -2.3114 N.am     1 ZINC000001530599   -1.0500
8      S8      2.0662   -4.7477   -3.5647 S.o2     1 ZINC000001530599    2.6400
9      O9      1.2791   -4.4811   -4.7174 O.2      1 ZINC000001530599   -0.9800
10     O10     3.4553   -4.4583   -3.4882 O.2      1 ZINC000001530599   -0.9800
11     C11     1.8978   -6.4703   -3.2347 C.ar     1 ZINC000001530599   -0.6300
12     C12     2.8715   -7.1337   -2.5116 C.ar     1 ZINC000001530599    0.0000
13     C13     2.7400   -8.4849   -2.2525 C.ar     1 ZINC000001530599   -0.1300
14     C14     1.6336   -9.1736   -2.7169 C.ar     1 ZINC000001530599    0.0200
15     Cl15    1.4675  -10.8707   -2.3913 Cl       1 ZINC000001530599   -0.0500
16     C16     0.6594   -8.5091   -3.4405 C.ar     1 ZINC000001530599   -0.1300
17     C17     0.7893   -7.1567   -3.6941 C.ar     1 ZINC000001530599    0.0000
18     H18     1.0039    1.9031    0.0027 H        1 ZINC000001530599    0.0600
19     H19    -0.5459    1.8868   -0.8726 H        1 ZINC000001530599    0.0600
20     H20    -0.5289    1.8773    0.9072 H        1 ZINC000001530599    0.0600
21     H21     0.5293   -0.3651    0.8851 H        1 ZINC000001530599    0.0800
22     H22    -1.0205   -0.3814    0.0098 H        1 ZINC000001530599    0.0700
23     H23     0.1910   -0.1364   -2.1398 H        1 ZINC000001530599    0.0800
24     H24     1.7408   -0.1202   -1.2645 H        1 ZINC000001530599    0.0800
25     H25     0.3316   -2.4569   -0.5361 H        1 ZINC000001530599    0.4400
26     H26     2.2906   -2.5059   -4.0035 H        1 ZINC000001530599    0.4100
27     H27     3.7354   -6.5960   -2.1495 H        1 ZINC000001530599    0.1500
28     H28     3.5010   -9.0031   -1.6879 H        1 ZINC000001530599    0.1500
29     H29    -0.2044   -9.0463   -3.8035 H        1 ZINC000001530599    0.1500
30     H30     0.0287   -6.6378   -4.2587 H        1 ZINC000001530599    0.1500
@<TRIPOS>BOND
1     1     2     1
2     1     18    1
3     1     19    1
4     1     20    1
5     2     3     1
6     2     21    1
7     2     22    1
8     3     4     1
9     3     23    1
10    3     24    1
11    4     5     1
12    4     25    1
13    5     6     1
14    5     7     2
15    6     26    1
16    7     8     am
17    8     9     2
18    8     10    2
19    8     11    1
20    11    17    ar
21    11    12    ar
22    12    13    ar
23    12    27    1
24    13    14    ar
25    13    28    1
26    14    15    1
27    14    16    ar
28    16    17    ar
29    16    29    1
30    17    30    1
@<TRIPOS>SUBSTRUCTURE
1   ZINC000001530599 1     RESIDUE    1   A     ZIN   1
