@<TRIPOS>MOLECULE
ZINC000019361042
55   58    0    0    0
SMALL
USER_CHARGES
NO_NAME
@<TRIPOS>ATOM
1 C1        1.3047     1.9552    -0.7155 C.3    1 <0>      -0.1200
2 C2        1.0934     0.4648    -0.6441 C.ar   1 <0>      -0.0900
3 C3        1.0766    -0.2871    -1.8036 C.ar   1 <0>      -0.1200
4 C4        0.8828    -1.6545    -1.7381 C.ar   1 <0>      -0.1200
5 C5        0.7062    -2.2695    -0.5129 C.ar   1 <0>      -0.1200
6 C6        0.7239    -1.5174     0.6470 C.ar   1 <0>      -0.0800
7 C7        0.5310    -2.1879     1.9828 C.3    1 <0>       0.0900
8 N8        1.8364    -2.5958     2.5191 N.3    1 <0>      -0.5300
9 C9        2.6438    -3.2634     1.4886 C.3    1 <0>       0.0600
10 C10       4.0218    -3.6004     2.0629 C.3    1 <0>       0.0600
11 N11       3.8607    -4.4625     3.2421 N.3    1 <0>      -0.5300
12 C12       5.1661    -4.8703     3.7784 C.3    1 <0>       0.1700
13 H13       5.7218    -3.9869     4.0929 H      1 <0>       0.0600
14 C14       5.9422    -5.5984     2.7114 C.ar   1 <0>      -0.0800
15 C15       5.3185    -6.5583     1.9366 C.ar   1 <0>      -0.0900
16 C16       6.0304    -7.2262     0.9578 C.ar   1 <0>      -0.1200
17 C17       7.3660    -6.9340     0.7537 C.ar   1 <0>      -0.1200
18 C18       7.9895    -5.9734     1.5280 C.ar   1 <0>      -0.1200
19 C19       7.2765    -5.3025     2.5038 C.ar   1 <0>      -0.1100
20 C20       4.9608    -5.7819     4.9607 C.ar   1 <0>      -0.0700
21 C21       4.0134    -6.7869     4.9021 C.ar   1 <0>      -0.0800
22 C22       3.8247    -7.6233     5.9861 C.ar   1 <0>      -0.1100
23 C23       4.5842    -7.4546     7.1301 C.ar   1 <0>      -0.0300
24 Cl24      4.3482    -8.5052     8.4918 Cl     1 <0>      -0.0700
25 C25       5.5323    -6.4487     7.1882 C.ar   1 <0>      -0.1100
26 C26       5.7240    -5.6165     6.1015 C.ar   1 <0>      -0.1000
27 C27       3.0533    -3.7948     4.2726 C.3    1 <0>       0.0600
28 C28       1.6753    -3.4578     3.6983 C.3    1 <0>       0.0600
29 C29       0.9220    -0.1511     0.5818 C.ar   1 <0>      -0.1000
30 H30       2.3712     2.1740    -0.6614 H      1 <0>       0.0700
31 H31       0.9033     2.3345    -1.6552 H      1 <0>       0.0700
32 H32       0.7926     2.4352     0.1184 H      1 <0>       0.0700
33 H33       1.2146     0.1934    -2.7609 H      1 <0>       0.1200
34 H34       0.8689    -2.2419    -2.6442 H      1 <0>       0.1200
35 H35       0.5541    -3.3375    -0.4618 H      1 <0>       0.1200
36 H36       0.0559    -1.4915     2.6737 H      1 <0>       0.0800
37 H37      -0.1020    -3.0667     1.8601 H      1 <0>       0.0400
38 H38       2.1463    -4.1811     1.1747 H      1 <0>       0.0400
39 H39       2.7594    -2.6005     0.6311 H      1 <0>       0.0900
40 H40       4.6123    -4.1216     1.3094 H      1 <0>       0.0800
41 H41       4.5303    -2.6805     2.3517 H      1 <0>       0.0400
42 H42       4.2750    -6.7867     2.0961 H      1 <0>       0.1300
43 H43       5.5433    -7.9767     0.3529 H      1 <0>       0.1200
44 H44       7.9224    -7.4563    -0.0105 H      1 <0>       0.1200
45 H45       9.0331    -5.7453     1.3687 H      1 <0>       0.1200
46 H46       7.7636    -4.5520     3.1087 H      1 <0>       0.1200
47 H47       3.4202    -6.9182     4.0091 H      1 <0>       0.1400
48 H48       3.0842    -8.4081     5.9403 H      1 <0>       0.1300
49 H49       6.1254    -6.3164     8.0811 H      1 <0>       0.1300
50 H50       6.4644    -4.8315     6.1466 H      1 <0>       0.1300
51 H51       2.9377    -4.4577     5.1301 H      1 <0>       0.0800
52 H52       3.5508    -2.8772     4.5865 H      1 <0>       0.0400
53 H53       1.0848    -2.9366     4.4518 H      1 <0>       0.0800
54 H54       1.1668    -4.3777     3.4095 H      1 <0>       0.0400
55 H55       0.9359     0.4364     1.4880 H      1 <0>       0.1200
@<TRIPOS>BOND
1    1    2 1
2    1   30 1
3    1   31 1
4    1   32 1
5    2   29 ar
6    2    3 ar
7    3    4 ar
8    3   33 1
9    4    5 ar
10    4   34 1
11    5    6 ar
12    5   35 1
13    6    7 1
14    6   29 ar
15    7    8 1
16    7   36 1
17    7   37 1
18    8   28 1
19    8    9 1
20    9   10 1
21    9   38 1
22    9   39 1
23   10   11 1
24   10   40 1
25   10   41 1
26   11   12 1
27   11   27 1
28   12   13 1
29   12   14 1
30   12   20 1
31   14   19 ar
32   14   15 ar
33   15   16 ar
34   15   42 1
35   16   17 ar
36   16   43 1
37   17   18 ar
38   17   44 1
39   18   19 ar
40   18   45 1
41   19   46 1
42   20   26 ar
43   20   21 ar
44   21   22 ar
45   21   47 1
46   22   23 ar
47   22   48 1
48   23   24 1
49   23   25 ar
50   25   26 ar
51   25   49 1
52   26   50 1
53   27   28 1
54   27   51 1
55   27   52 1
56   28   53 1
57   28   54 1
58   29   55 1
