@<TRIPOS>MOLECULE
ZINC000003875393
51    53    1     0     0
SMALL
USER_CHARGES
@<TRIPOS>ATOM
1      C1      0.6000   -0.8048    1.3552 C.3      1 ZINC000003875393    0.0200
2      O2      0.7671   -2.1970    1.0793 O.3      1 ZINC000003875393   -0.3000
3      C3      1.2762   -2.5285   -0.1373 C.ar     1 ZINC000003875393    0.1400
4      C4      1.6132   -1.5386   -1.0434 C.ar     1 ZINC000003875393   -0.1700
5      C5      2.1320   -1.8729   -2.2849 C.ar     1 ZINC000003875393   -0.0800
6      C6      2.3141   -3.1969   -2.6241 C.ar     1 ZINC000003875393   -0.1300
7      C7      1.9793   -4.1930   -1.7174 C.ar     1 ZINC000003875393   -0.1500
8      C8      1.4665   -3.8654   -0.4754 C.ar     1 ZINC000003875393    0.1200
9      O9      1.1401   -4.8460    0.4086 O.3      1 ZINC000003875393   -0.3000
10     C10     1.3530   -6.1952   -0.0115 C.3      1 ZINC000003875393    0.0200
11     C11     2.8683   -3.6047   -3.9632 C.3      1 ZINC000003875393    0.1000
12     H12     2.0525   -3.9448   -4.6011 H        1 ZINC000003875393    0.1500
13     C13     3.8686   -4.7512   -3.7676 C.3      1 ZINC000003875393   -0.1900
14     C14     4.4768   -5.0812   -5.1150 C.2      1 ZINC000003875393    0.3400
15     O15     4.5472   -6.2213   -5.5069 O.2      1 ZINC000003875393   -0.3900
16     C16     4.9929   -3.9303   -5.9536 C.3      1 ZINC000003875393   -0.1600
17     H17     5.9022   -3.5283   -5.5067 H        1 ZINC000003875393    0.1300
18     C18     5.2877   -4.4177   -7.3736 C.3      1 ZINC000003875393   -0.1100
19     C19     5.9405   -3.2896   -8.1749 C.3      1 ZINC000003875393   -0.1000
20     C20     7.3131   -2.9693   -7.5797 C.3      1 ZINC000003875393   -0.1600
21     C21     6.1059   -3.7281   -9.6314 C.3      1 ZINC000003875393   -0.1500
22     C22     3.9120   -2.8441   -5.9927 C.3      1 ZINC000003875393    0.0000
23     N23     3.5530   -2.4850   -4.6115 N.4      1 ZINC000003875393   -0.3800
24     H24     4.3887   -2.2440   -4.1000 H        1 ZINC000003875393    0.4300
25     C25     2.6425   -1.3312   -4.6301 C.3      1 ZINC000003875393   -0.0100
26     C26     2.4888   -0.7631   -3.2410 C.3      1 ZINC000003875393   -0.1000
27     H27     1.5664   -0.3041    1.2957 H        1 ZINC000003875393    0.0600
28     H28    -0.0807   -0.3687    0.6241 H        1 ZINC000003875393    0.0600
29     H29     0.1869   -0.6798    2.3561 H        1 ZINC000003875393    0.1100
30     H30     1.4710   -0.5003   -0.7824 H        1 ZINC000003875393    0.1500
31     H31     2.1233   -5.2301   -1.9820 H        1 ZINC000003875393    0.1500
32     H32     0.7598   -6.3958   -0.9037 H        1 ZINC000003875393    0.0600
33     H33     2.4091   -6.3433   -0.2365 H        1 ZINC000003875393    0.0600
34     H34     1.0523   -6.8755    0.7853 H        1 ZINC000003875393    0.1100
35     H35     4.6523   -4.4418   -3.0761 H        1 ZINC000003875393    0.1300
36     H36     3.3527   -5.6263   -3.3725 H        1 ZINC000003875393    0.1400
37     H37     5.9638   -5.2718   -7.3316 H        1 ZINC000003875393    0.0900
38     H38     4.3567   -4.7148   -7.8564 H        1 ZINC000003875393    0.0800
39     H39     5.3098   -2.4016   -8.1322 H        1 ZINC000003875393    0.0700
40     H40     7.9085   -3.8809   -7.5284 H        1 ZINC000003875393    0.0600
41     H41     7.8207   -2.2387   -8.2095 H        1 ZINC000003875393    0.0600
42     H42     7.1879   -2.5602   -6.5772 H        1 ZINC000003875393    0.0500
43     H43     5.1280   -3.9562  -10.0554 H        1 ZINC000003875393    0.0600
44     H44     6.5709   -2.9243  -10.2022 H        1 ZINC000003875393    0.0600
45     H45     6.7366   -4.6160   -9.6741 H        1 ZINC000003875393    0.0600
46     H46     4.2982   -1.9654   -6.5091 H        1 ZINC000003875393    0.1500
47     H47     3.0367   -3.2212   -6.5216 H        1 ZINC000003875393    0.1400
48     H48     3.0405   -0.5624   -5.2924 H        1 ZINC000003875393    0.1400
49     H49     1.6602   -1.6466   -4.9817 H        1 ZINC000003875393    0.1300
50     H50     1.7017   -0.0091   -3.2425 H        1 ZINC000003875393    0.1300
51     H51     3.4280   -0.3053   -2.9304 H        1 ZINC000003875393    0.1000
@<TRIPOS>BOND
1     1     2     1
2     1     27    1
3     1     28    1
4     1     29    1
5     2     3     1
6     3     8     ar
7     3     4     ar
8     4     5     ar
9     4     30    1
10    5     26    1
11    5     6     ar
12    6     7     ar
13    6     11    1
14    7     8     ar
15    7     31    1
16    8     9     1
17    9     10    1
18    10    32    1
19    10    33    1
20    10    34    1
21    11    12    1
22    11    23    1
23    11    13    1
24    13    14    1
25    13    35    1
26    13    36    1
27    14    15    2
28    14    16    1
29    16    17    1
30    16    18    1
31    16    22    1
32    18    19    1
33    18    37    1
34    18    38    1
35    19    20    1
36    19    21    1
37    19    39    1
38    20    40    1
39    20    41    1
40    20    42    1
41    21    43    1
42    21    44    1
43    21    45    1
44    22    23    1
45    22    46    1
46    22    47    1
47    23    24    1
48    23    25    1
49    25    26    1
50    25    48    1
51    25    49    1
52    26    50    1
53    26    51    1
@<TRIPOS>SUBSTRUCTURE
1   ZINC000003875393 1     RESIDUE    1   A     ZIN   1
