@<TRIPOS>MOLECULE
ZINC000001554010
49    49    1     0     0
SMALL
USER_CHARGES
@<TRIPOS>ATOM
1      C1      1.3124   -1.5402    1.4076 C.3      1 ZINC000001554010   -0.1400
2      C2      0.3533   -1.2342    0.2555 C.3      1 ZINC000001554010   -0.0900
3      C3      0.9273   -1.7927   -1.0481 C.3      1 ZINC000001554010   -0.1400
4      C4     -0.9830   -1.8742    0.5309 C.2      1 ZINC000001554010    0.4600
5      O5     -1.1509   -2.5099    1.5446 O.2      1 ZINC000001554010   -0.4900
6      O6     -1.9866   -1.7380   -0.3499 O.3      1 ZINC000001554010   -0.3500
7      C7     -3.2049   -2.4809   -0.0811 C.3      1 ZINC000001554010    0.2800
8      H8     -3.9120   -2.3265   -0.8962 H        1 ZINC000001554010    0.1300
9      C9     -2.8784   -3.9711    0.0354 C.3      1 ZINC000001554010   -0.1800
10     O10    -3.7913   -2.0152    1.1629 O.3      1 ZINC000001554010   -0.3700
11     C11    -4.2760   -0.7592    1.1777 C.2      1 ZINC000001554010    0.6400
12     O12    -4.1268   -0.0389    0.2105 O.2      1 ZINC000001554010   -0.5600
13     N13    -4.9267   -0.3007    2.2653 N.am     1 ZINC000001554010   -0.6900
14     C14    -5.4542    1.0660    2.2814 C.3      1 ZINC000001554010    0.1300
15     C15    -6.0540    1.3650    3.6567 C.3      1 ZINC000001554010   -0.0400
16     C16    -6.5946    2.7962    3.6772 C.3      1 ZINC000001554010   -0.1800
17     C17    -7.6368    2.9549    2.6003 C.2      1 ZINC000001554010    0.4900
18     O18    -7.9778    1.9917    1.9352 O.co2    1 ZINC000001554010   -0.6800
19     O19    -8.1389    4.0467    2.3941 O.co2    1 ZINC000001554010   -0.7000
20     C20    -7.1944    0.3850    3.9398 C.3      1 ZINC000001554010   -0.1200
21     C21    -7.7942    0.6841    5.3152 C.3      1 ZINC000001554010   -0.1200
22     C22    -6.7132    0.5319    6.3871 C.3      1 ZINC000001554010   -0.1200
23     C23    -5.5728    1.5118    6.1040 C.3      1 ZINC000001554010   -0.1200
24     C24    -4.9729    1.2128    4.7286 C.3      1 ZINC000001554010   -0.1100
25     H25     2.2789   -1.0773    1.2084 H        1 ZINC000001554010    0.0700
26     H26     0.9035   -1.1423    2.3363 H        1 ZINC000001554010    0.0600
27     H27     1.4382   -2.6191    1.4988 H        1 ZINC000001554010    0.0600
28     H28     0.2275   -0.1553    0.1643 H        1 ZINC000001554010    0.1100
29     H29     0.2439   -1.5747   -1.8688 H        1 ZINC000001554010    0.0700
30     H30     1.8938   -1.3298   -1.2473 H        1 ZINC000001554010    0.0700
31     H31     1.0531   -2.8716   -0.9569 H        1 ZINC000001554010    0.0600
32     H32    -2.1714   -4.1255    0.8505 H        1 ZINC000001554010    0.0900
33     H33    -3.7930   -4.5287    0.2372 H        1 ZINC000001554010    0.0900
34     H34    -2.4383   -4.3207   -0.8985 H        1 ZINC000001554010    0.0900
35     H35    -5.0458   -0.8756    3.0374 H        1 ZINC000001554010    0.4000
36     H36    -4.6471    1.7693    2.0762 H        1 ZINC000001554010    0.0500
37     H37    -6.2263    1.1664    1.5186 H        1 ZINC000001554010    0.1200
38     H38    -7.0425    3.0015    4.6494 H        1 ZINC000001554010    0.0700
39     H39    -5.7779    3.4956    3.4983 H        1 ZINC000001554010    0.0600
40     H40    -7.9646    0.4935    3.1761 H        1 ZINC000001554010    0.1100
41     H41    -6.8093   -0.6346    3.9252 H        1 ZINC000001554010    0.0400
42     H42    -8.1793    1.7037    5.3297 H        1 ZINC000001554010    0.0600
43     H43    -8.6067   -0.0141    5.5168 H        1 ZINC000001554010    0.0500
44     H44    -7.1405    0.7449    7.3669 H        1 ZINC000001554010    0.0500
45     H45    -6.3281   -0.4877    6.3725 H        1 ZINC000001554010    0.0500
46     H46    -5.9579    2.5314    6.1186 H        1 ZINC000001554010    0.0700
47     H47    -4.8026    1.4034    6.8677 H        1 ZINC000001554010    0.0500
48     H48    -4.5878    0.1932    4.7141 H        1 ZINC000001554010    0.0500
49     H49    -4.1605    1.9109    4.5270 H        1 ZINC000001554010    0.0600
@<TRIPOS>BOND
1     1     2     1
2     1     25    1
3     1     26    1
4     1     27    1
5     2     3     1
6     2     4     1
7     2     28    1
8     3     29    1
9     3     30    1
10    3     31    1
11    4     5     2
12    4     6     1
13    6     7     1
14    7     8     1
15    7     9     1
16    7     10    1
17    9     32    1
18    9     33    1
19    9     34    1
20    10    11    1
21    11    12    2
22    11    13    am
23    13    14    1
24    13    35    1
25    14    15    1
26    14    36    1
27    14    37    1
28    15    24    1
29    15    16    1
30    15    20    1
31    16    17    1
32    16    38    1
33    16    39    1
34    17    18    ar
35    17    19    ar
36    20    21    1
37    20    40    1
38    20    41    1
39    21    22    1
40    21    42    1
41    21    43    1
42    22    23    1
43    22    44    1
44    22    45    1
45    23    24    1
46    23    46    1
47    23    47    1
48    24    48    1
49    24    49    1
@<TRIPOS>SUBSTRUCTURE
1   ZINC000001554010 1     RESIDUE    1   A     ZIN   1
