@<TRIPOS>MOLECULE
ZINC000000537791
68    70    1     0     0
SMALL
USER_CHARGES
@<TRIPOS>ATOM
1      C1     -0.0187    1.5258    0.0104 C.3      1 ZINC000000537791   -0.1500
2      C2      0.0021   -0.0041    0.0020 C.3      1 ZINC000000537791   -0.0600
3      C3     -1.4117   -0.5257    0.0127 C.2      1 ZINC000000537791   -0.1800
4      C4     -2.1048   -0.8785   -1.0661 C.2      1 ZINC000000537791   -0.0700
5      C5     -1.6263   -0.8303   -2.4943 C.3      1 ZINC000000537791   -0.1100
6      C6     -3.4628   -1.3376   -0.5881 C.3      1 ZINC000000537791    0.1200
7      N7     -3.4408   -1.1985    0.8739 N.am     1 ZINC000000537791   -0.5800
8      C8     -4.4476   -1.4950    1.7194 C.2      1 ZINC000000537791    0.7200
9      O9     -5.4995   -1.9226    1.2856 O.2      1 ZINC000000537791   -0.5600
10     N10    -4.2882   -1.3173    3.0458 N.am     1 ZINC000000537791   -0.7300
11     C11    -5.3827   -1.6396    3.9648 C.3      1 ZINC000000537791    0.1400
12     C12    -4.9445   -1.3490    5.4016 C.3      1 ZINC000000537791   -0.1000
13     C13    -6.0703   -1.6805    6.3469 C.ar     1 ZINC000000537791   -0.0300
14     C14    -7.0035   -0.7151    6.6759 C.ar     1 ZINC000000537791   -0.1300
15     C15    -8.0362   -1.0192    7.5430 C.ar     1 ZINC000000537791   -0.0100
16     C16    -8.1360   -2.2887    8.0808 C.ar     1 ZINC000000537791   -0.6400
17     S17    -9.4520   -2.6762    9.1866 S.o2     1 ZINC000000537791    2.6600
18     O18    -9.0084   -3.7768    9.9683 O.2      1 ZINC000000537791   -0.9800
19     O19    -9.8779   -1.4436    9.7510 O.2      1 ZINC000000537791   -0.9800
20     N20   -10.7145   -3.2320    8.2704 N.am     1 ZINC000000537791   -1.0000
21     C21   -11.8253   -3.5925    8.8439 C.2      1 ZINC000000537791    0.6900
22     O22   -11.9487   -3.5134   10.1868 O.3      1 ZINC000000537791   -0.5000
23     N23   -12.8723   -4.0534    8.0840 N.pl3    1 ZINC000000537791   -0.6900
24     C24   -14.1231   -4.4593    8.7298 C.3      1 ZINC000000537791    0.1200
25     C25   -15.0097   -3.2306    8.9420 C.3      1 ZINC000000537791   -0.1400
26     C26   -15.3198   -2.5858    7.5896 C.3      1 ZINC000000537791   -0.1200
27     C27   -16.0497   -3.5937    6.6995 C.3      1 ZINC000000537791   -0.0900
28     C28   -16.3599   -2.9489    5.3471 C.3      1 ZINC000000537791   -0.1500
29     C29   -15.1631   -4.8225    6.4873 C.3      1 ZINC000000537791   -0.1200
30     C30   -14.8529   -5.4673    7.8397 C.3      1 ZINC000000537791   -0.1200
31     C31    -7.2036   -3.2544    7.7508 C.ar     1 ZINC000000537791   -0.0100
32     C32    -6.1731   -2.9515    6.8807 C.ar     1 ZINC000000537791   -0.1300
33     C33    -2.2268   -0.7262    1.2140 C.2      1 ZINC000000537791    0.5500
34     O34    -1.8631   -0.4920    2.3502 O.2      1 ZINC000000537791   -0.5000
35     H35     1.0039    1.9031    0.0027 H        1 ZINC000000537791    0.0600
36     H36    -0.5459    1.8868   -0.8726 H        1 ZINC000000537791    0.0600
37     H37    -0.5289    1.8773    0.9072 H        1 ZINC000000537791    0.0600
38     H38     0.5123   -0.3556   -0.8948 H        1 ZINC000000537791    0.0800
39     H39     0.5293   -0.3651    0.8851 H        1 ZINC000000537791    0.0800
40     H40    -1.1564   -1.7794   -2.7523 H        1 ZINC000000537791    0.0900
41     H41    -2.4743   -0.6530   -3.1558 H        1 ZINC000000537791    0.0800
42     H42    -0.9021   -0.0236   -2.6078 H        1 ZINC000000537791    0.0800
43     H43    -4.2440   -0.7079   -1.0140 H        1 ZINC000000537791    0.1100
44     H44    -3.6262   -2.3793   -0.8643 H        1 ZINC000000537791    0.1100
45     H45    -3.4488   -0.9760    3.3920 H        1 ZINC000000537791    0.4100
46     H46    -6.2534   -1.0311    3.7204 H        1 ZINC000000537791    0.0800
47     H47    -5.6384   -2.6948    3.8694 H        1 ZINC000000537791    0.0800
48     H48    -4.0737   -1.9574    5.6460 H        1 ZINC000000537791    0.0900
49     H49    -4.6887   -0.2937    5.4971 H        1 ZINC000000537791    0.0900
50     H50    -6.9255    0.2767    6.2557 H        1 ZINC000000537791    0.1300
51     H51    -8.7649   -0.2648    7.8006 H        1 ZINC000000537791    0.1400
52     H52   -12.8089   -3.8029   10.5205 H        1 ZINC000000537791    0.4200
53     H53   -12.7837   -4.1102    7.1198 H        1 ZINC000000537791    0.4300
54     H54   -13.9021   -4.9187    9.6933 H        1 ZINC000000537791    0.0900
55     H55   -15.9403   -3.5326    9.4225 H        1 ZINC000000537791    0.0900
56     H56   -14.4897   -2.5125    9.5762 H        1 ZINC000000537791    0.0700
57     H57   -15.9515   -1.7104    7.7408 H        1 ZINC000000537791    0.0700
58     H58   -14.3892   -2.2838    7.1092 H        1 ZINC000000537791    0.0700
59     H59   -16.9803   -3.8958    7.1800 H        1 ZINC000000537791    0.0700
60     H60   -15.4293   -2.6469    4.8666 H        1 ZINC000000537791    0.0600
61     H61   -16.8798   -3.6670    4.7130 H        1 ZINC000000537791    0.0600
62     H62   -16.9915   -2.0736    5.4983 H        1 ZINC000000537791    0.0600
63     H63   -15.6830   -5.5405    5.8532 H        1 ZINC000000537791    0.0700
64     H64   -14.2325   -4.5204    6.0068 H        1 ZINC000000537791    0.0600
65     H65   -14.2213   -6.3426    7.6885 H        1 ZINC000000537791    0.0800
66     H66   -15.7835   -5.7693    8.3202 H        1 ZINC000000537791    0.0900
67     H67    -7.2817   -4.2464    8.1707 H        1 ZINC000000537791    0.1400
68     H68    -5.4446   -3.7059    6.6228 H        1 ZINC000000537791    0.1300
@<TRIPOS>BOND
1     1     2     1
2     1     35    1
3     1     36    1
4     1     37    1
5     2     3     1
6     2     38    1
7     2     39    1
8     3     33    1
9     3     4     2
10    4     5     1
11    4     6     1
12    5     40    1
13    5     41    1
14    5     42    1
15    6     7     1
16    6     43    1
17    6     44    1
18    7     8     am
19    7     33    am
20    8     9     2
21    8     10    am
22    10    11    1
23    10    45    1
24    11    12    1
25    11    46    1
26    11    47    1
27    12    13    1
28    12    48    1
29    12    49    1
30    13    32    ar
31    13    14    ar
32    14    15    ar
33    14    50    1
34    15    16    ar
35    15    51    1
36    16    17    1
37    16    31    ar
38    17    18    2
39    17    19    2
40    17    20    am
41    20    21    2
42    21    22    1
43    21    23    1
44    22    52    1
45    23    24    1
46    23    53    1
47    24    30    1
48    24    25    1
49    24    54    1
50    25    26    1
51    25    55    1
52    25    56    1
53    26    27    1
54    26    57    1
55    26    58    1
56    27    28    1
57    27    29    1
58    27    59    1
59    28    60    1
60    28    61    1
61    28    62    1
62    29    30    1
63    29    63    1
64    29    64    1
65    30    65    1
66    30    66    1
67    31    32    ar
68    31    67    1
69    32    68    1
70    33    34    2
@<TRIPOS>SUBSTRUCTURE
1   ZINC000000537791 1     RESIDUE    1   A     ZIN   1
