@<TRIPOS>MOLECULE
ZINC000008214703
64   64    0    0    0
SMALL
USER_CHARGES
NO_NAME
@<TRIPOS>ATOM
1 C1        0.7544     1.4577     2.4886 C.3    1 <0>      -0.1500
2 C2        0.6776    -0.0288     2.1346 C.3    1 <0>      -0.1300
3 C3       -0.7874    -0.4682     2.0935 C.3    1 <0>      -0.1200
4 C4       -0.8643    -1.9547     1.7396 C.3    1 <0>      -0.1200
5 C5       -2.3292    -2.3941     1.6985 C.3    1 <0>      -0.1200
6 C6       -2.4061    -3.8806     1.3445 C.3    1 <0>      -0.1100
7 C7       -3.8711    -4.3200     1.3034 C.3    1 <0>      -0.1700
8 C8       -3.9468    -5.7841     0.9547 C.2    1 <0>       0.3500
9 O9       -2.9336    -6.4115     0.7593 O.2    1 <0>      -0.4600
10 C10      -5.2869    -6.4655     0.8500 C.3    1 <0>      -0.1700
11 C11      -5.0835    -7.9378     0.4870 C.3    1 <0>      -0.1000
12 C12      -6.4441    -8.6295     0.3807 C.3    1 <0>      -0.0800
13 H13      -7.0125    -8.4779     1.2983 H      1 <0>       0.1000
14 C14      -7.2280    -8.0710    -0.8249 C.3    1 <0>       0.1000
15 H15      -6.5443    -7.6559    -1.5653 H      1 <0>       0.0600
16 O16      -8.1628    -7.0784    -0.3971 O.3    1 <0>      -0.5600
17 C17      -7.9678    -9.3038    -1.4010 C.3    1 <0>      -0.1900
18 C18      -6.9254   -10.4371    -1.2332 C.3    1 <0>       0.1000
19 H19      -6.1928   -10.4042    -2.0396 H      1 <0>       0.0600
20 O20      -7.5726   -11.7108    -1.1988 O.3    1 <0>      -0.5500
21 C21      -6.2517   -10.1342     0.1223 C.3    1 <0>      -0.0700
22 H22      -5.1890   -10.3714     0.0724 H      1 <0>       0.0800
23 C23      -6.9185   -10.9486     1.2327 C.3    1 <0>      -0.0800
24 C24      -6.1871   -10.7216     2.5306 C.2    1 <0>      -0.1800
25 C25      -6.8461   -10.3357     3.5950 C.2    1 <0>      -0.1400
26 C26      -8.3519   -10.2814     3.5704 C.3    1 <0>      -0.1000
27 C27      -8.9100   -11.0645     4.7604 C.3    1 <0>      -0.0900
28 C28     -10.4388   -11.0093     4.7354 C.3    1 <0>      -0.1800
29 C29     -10.9885   -11.7806     5.9076 C.2    1 <0>       0.4900
30 O30     -10.2280   -12.3241     6.6904 O.co2  1 <0>      -0.7000
31 O31     -12.1938   -11.8612     6.0731 O.co2  1 <0>      -0.7100
32 H32       1.7981     1.7707     2.5179 H      1 <0>       0.0500
33 H33       0.2219     2.0385     1.7355 H      1 <0>       0.0500
34 H34       0.2980     1.6228     3.4646 H      1 <0>       0.0500
35 H35       1.1340    -0.1940     1.1587 H      1 <0>       0.0600
36 H36       1.2101    -0.6097     2.8877 H      1 <0>       0.0600
37 H37      -1.2438    -0.3031     3.0695 H      1 <0>       0.0600
38 H38      -1.3199     0.1126     1.3404 H      1 <0>       0.0600
39 H39      -0.4079    -2.1199     0.7636 H      1 <0>       0.0600
40 H40      -0.3317    -2.5356     2.4927 H      1 <0>       0.0600
41 H41      -2.7856    -2.2289     2.6744 H      1 <0>       0.0600
42 H42      -2.8618    -1.8133     0.9454 H      1 <0>       0.0600
43 H43      -1.9497    -4.0458     0.3685 H      1 <0>       0.0700
44 H44      -1.8736    -4.4614     2.0976 H      1 <0>       0.0700
45 H45      -4.3275    -4.1548     2.2793 H      1 <0>       0.1000
46 H46      -4.4036    -3.7392     0.5503 H      1 <0>       0.1000
47 H47      -5.8059    -6.3952     1.8059 H      1 <0>       0.1000
48 H48      -5.8821    -5.9795     0.0768 H      1 <0>       0.1000
49 H49      -4.5645    -8.0081    -0.4689 H      1 <0>       0.0600
50 H50      -4.4884    -8.4237     1.2602 H      1 <0>       0.0700
51 H51      -8.6834    -6.6930    -1.1151 H      1 <0>       0.3800
52 H52      -8.8678    -9.5184    -0.8249 H      1 <0>       0.0900
53 H53      -8.2083    -9.1530    -2.4534 H      1 <0>       0.0700
54 H54      -8.0599   -11.9262    -2.0057 H      1 <0>       0.3700
55 H55      -7.9565   -10.6340     1.3408 H      1 <0>       0.0800
56 H56      -6.8846   -12.0076     0.9769 H      1 <0>       0.0800
57 H57      -5.1196   -10.8771     2.5832 H      1 <0>       0.1000
58 H58      -6.3102   -10.0566     4.4902 H      1 <0>       0.1000
59 H59      -8.6791    -9.2435     3.6328 H      1 <0>       0.0600
60 H60      -8.7162   -10.7220     2.6424 H      1 <0>       0.0700
61 H61      -8.5828   -12.1023     4.6980 H      1 <0>       0.0600
62 H62      -8.5456   -10.6238     5.6884 H      1 <0>       0.0600
63 H63     -10.7660    -9.9714     4.7978 H      1 <0>       0.0500
64 H64     -10.8032   -11.4500     3.8074 H      1 <0>       0.0500
@<TRIPOS>BOND
1    1    2 1
2    1   32 1
3    1   33 1
4    1   34 1
5    2    3 1
6    2   35 1
7    2   36 1
8    3    4 1
9    3   37 1
10    3   38 1
11    4    5 1
12    4   39 1
13    4   40 1
14    5    6 1
15    5   41 1
16    5   42 1
17    6    7 1
18    6   43 1
19    6   44 1
20    7    8 1
21    7   45 1
22    7   46 1
23    8    9 2
24    8   10 1
25   10   11 1
26   10   47 1
27   10   48 1
28   11   12 1
29   11   49 1
30   11   50 1
31   12   13 1
32   12   21 1
33   12   14 1
34   14   15 1
35   14   16 1
36   14   17 1
37   16   51 1
38   17   18 1
39   17   52 1
40   17   53 1
41   18   19 1
42   18   20 1
43   18   21 1
44   20   54 1
45   21   22 1
46   21   23 1
47   23   24 1
48   23   55 1
49   23   56 1
50   24   25 2
51   24   57 1
52   25   26 1
53   25   58 1
54   26   27 1
55   26   59 1
56   26   60 1
57   27   28 1
58   27   61 1
59   27   62 1
60   28   29 1
61   28   63 1
62   28   64 1
63   29   30 ar
64   29   31 ar
