@<TRIPOS>MOLECULE
ZINC000029319828
53    55    1     0     0
SMALL
USER_CHARGES
@<TRIPOS>ATOM
1      C1      2.2903    1.5159    0.6867 C.3      1 ZINC000029319828   -0.1600
2      C2      2.0932    0.0001    0.7538 C.3      1 ZINC000029319828   -0.1300
3      C3      2.4024   -0.6154   -0.6123 C.3      1 ZINC000029319828   -0.1200
4      C4      2.2053   -2.1312   -0.5452 C.3      1 ZINC000029319828   -0.0700
5      C5      2.5098   -2.7375   -1.8908 C.cat    1 ZINC000029319828    0.3000
6      N6      3.6999   -3.0818   -2.3126 N.pl3    1 ZINC000029319828   -0.4600
7      H7      4.5209   -2.9855   -1.8050 H        1 ZINC000029319828    0.4500
8      C8      3.6148   -3.5851   -3.5434 C.2      1 ZINC000029319828   -0.0600
9      C9      2.2840   -3.5532   -3.9157 C.2      1 ZINC000029319828    0.1400
10     C10     1.7332   -3.9898   -5.1442 C.2      1 ZINC000029319828   -0.1400
11     C11     2.5528   -4.3265   -6.1751 C.2      1 ZINC000029319828   -0.0100
12     C12     4.0305   -4.0441   -6.0861 C.3      1 ZINC000029319828   -0.0400
13     C13     4.7590   -5.3014   -5.6869 C.2      1 ZINC000029319828   -0.1800
14     C14     5.3882   -6.1250   -6.5266 C.2      1 ZINC000029319828   -0.0900
15     C15     5.9888   -7.2199   -5.9293 C.2      1 ZINC000029319828   -0.1300
16     C16     5.8472   -7.2854   -4.6046 C.2      1 ZINC000029319828   -0.2100
17     S17     4.9162   -5.9033   -4.0418 S.3      1 ZINC000029319828    0.0500
18     C18     2.0211   -4.9392   -7.3265 C.2      1 ZINC000029319828    0.4400
19     O19     0.7147   -5.1889   -7.4052 O.co2    1 ZINC000029319828   -0.6700
20     O20     2.8245   -5.2692   -8.3369 O.co2    1 ZINC000029319828   -0.6800
21     N21     1.5992   -3.0138   -2.8426 N.pl3    1 ZINC000029319828   -0.3900
22     C22     0.1555   -2.7784   -2.7606 C.3      1 ZINC000029319828    0.1400
23     C23    -0.5292   -4.0249   -2.2623 C.ar     1 ZINC000029319828   -0.1600
24     C24    -0.8280   -5.0467   -3.1464 C.ar     1 ZINC000029319828   -0.1000
25     C25    -1.4546   -6.1904   -2.6975 C.ar     1 ZINC000029319828   -0.0800
26     C26    -1.7877   -6.3158   -1.3464 C.ar     1 ZINC000029319828   -0.1000
27     C27    -2.4577   -7.5364   -0.8584 C.2      1 ZINC000029319828    0.5100
28     O28    -2.7228   -8.4413   -1.6371 O.co2    1 ZINC000029319828   -0.6800
29     O29    -2.7479   -7.6432    0.3248 O.co2    1 ZINC000029319828   -0.6800
30     C30    -1.4829   -5.2801   -0.4595 C.ar     1 ZINC000029319828   -0.0900
31     C31    -0.8511   -4.1446   -0.9217 C.ar     1 ZINC000029319828   -0.1200
32     H32     3.3223    1.7363    0.4140 H        1 ZINC000029319828    0.0500
33     H33     1.6189    1.9367   -0.0618 H        1 ZINC000029319828    0.0600
34     H34     2.0701    1.9544    1.6600 H        1 ZINC000029319828    0.0600
35     H35     2.7647   -0.4208    1.5023 H        1 ZINC000029319828    0.0700
36     H36     1.0612   -0.2204    1.0266 H        1 ZINC000029319828    0.0700
37     H37     1.7310   -0.1946   -1.3608 H        1 ZINC000029319828    0.0800
38     H38     3.4344   -0.3949   -0.8851 H        1 ZINC000029319828    0.0700
39     H39     2.8767   -2.5521    0.2033 H        1 ZINC000029319828    0.1200
40     H40     1.1733   -2.3517   -0.2725 H        1 ZINC000029319828    0.1200
41     H41     4.4362   -3.9512   -4.1413 H        1 ZINC000029319828    0.2300
42     H42     0.6617   -4.0555   -5.2627 H        1 ZINC000029319828    0.1600
43     H43     4.3948   -3.7054   -7.0560 H        1 ZINC000029319828    0.1200
44     H44     4.2080   -3.2691   -5.3405 H        1 ZINC000029319828    0.0900
45     H45     5.4260   -5.9510   -7.5918 H        1 ZINC000029319828    0.1500
46     H46     6.5305   -7.9648   -6.4932 H        1 ZINC000029319828    0.1400
47     H47     6.2464   -8.0658   -3.9736 H        1 ZINC000029319828    0.1600
48     H48    -0.0400   -1.9564   -2.0720 H        1 ZINC000029319828    0.1200
49     H49    -0.2277   -2.5236   -3.7487 H        1 ZINC000029319828    0.1300
50     H50    -0.5703   -4.9481   -4.1906 H        1 ZINC000029319828    0.1300
51     H51    -1.6876   -6.9868   -3.3886 H        1 ZINC000029319828    0.1400
52     H52    -1.7378   -5.3702    0.5861 H        1 ZINC000029319828    0.1300
53     H53    -0.6148   -3.3432   -0.2374 H        1 ZINC000029319828    0.1100
@<TRIPOS>BOND
1     1     2     1
2     1     32    1
3     1     33    1
4     1     34    1
5     2     3     1
6     2     35    1
7     2     36    1
8     3     4     1
9     3     37    1
10    3     38    1
11    4     5     1
12    4     39    1
13    4     40    1
14    5     21    ar
15    5     6     ar
16    6     7     1
17    6     8     1
18    8     9     2
19    8     41    1
20    9     10    1
21    9     21    1
22    10    11    2
23    10    42    1
24    11    12    1
25    11    18    1
26    12    13    1
27    12    43    1
28    12    44    1
29    13    17    1
30    13    14    2
31    14    15    1
32    14    45    1
33    15    16    2
34    15    46    1
35    16    17    1
36    16    47    1
37    18    19    ar
38    18    20    ar
39    21    22    1
40    22    23    1
41    22    48    1
42    22    49    1
43    23    31    ar
44    23    24    ar
45    24    25    ar
46    24    50    1
47    25    26    ar
48    25    51    1
49    26    27    1
50    26    30    ar
51    27    28    ar
52    27    29    ar
53    30    31    ar
54    30    52    1
55    31    53    1
@<TRIPOS>SUBSTRUCTURE
1   ZINC000029319828 1     RESIDUE    1   A     ZIN   1
