@<TRIPOS>MOLECULE
ZINC000000000882
15   16    0    0    0
SMALL
USER_CHARGES
NO_NAME
@<TRIPOS>ATOM
1 N1       -0.0167     1.3797     0.0096 N.pl3  1 <0>      -0.8200
2 C2        0.0021    -0.0041     0.0020 C.ar   1 <0>       0.5100
3 C3       -1.1953    -0.7393     0.0036 C.ar   1 <0>      -0.1100
4 N4       -2.5111    -0.4171     0.0123 N.2    1 <0>      -0.4600
5 C5       -3.2237    -1.5060     0.0097 C.2    1 <0>       0.2500
6 N6       -2.4068    -2.5973    -0.0008 N.pl3  1 <0>      -0.5800
7 C7       -1.1125    -2.1421    -0.0049 C.ar   1 <0>       0.3000
8 N8        0.0849    -2.7183    -0.0145 N.ar   1 <0>      -0.5600
9 C9        1.1806    -1.9886    -0.0159 C.ar   1 <0>       0.3700
10 N10       1.1531    -0.6685    -0.0125 N.ar   1 <0>      -0.5900
11 H11       0.8167     1.8761     0.0043 H      1 <0>       0.4100
12 H12      -0.8632     1.8532     0.0162 H      1 <0>       0.4200
13 H13      -4.3032    -1.5401     0.0154 H      1 <0>       0.2300
14 H14      -2.6888    -3.5253    -0.0044 H      1 <0>       0.4300
15 H15       2.1380    -2.4885    -0.0238 H      1 <0>       0.2100
@<TRIPOS>BOND
1    1    2 1
2    1   11 1
3    1   12 1
4    2   10 ar
5    2    3 ar
6    3    7 ar
7    3    4 1
8    4    5 2
9    5    6 1
10    5   13 1
11    6    7 1
12    6   14 1
13    7    8 ar
14    8    9 ar
15    9   10 ar
16    9   15 1
