@<TRIPOS>MOLECULE
ZINC000000968336
56    57    1     0     0
SMALL
USER_CHARGES
@<TRIPOS>ATOM
1      C1      2.8931    0.7925    2.3303 C.3      1 ZINC000000968336   -0.1200
2      C2      2.7692   -0.6368    1.8688 C.ar     1 ZINC000000968336   -0.0900
3      C3      3.3110   -1.0197    0.6560 C.ar     1 ZINC000000968336   -0.1000
4      C4      3.1992   -2.3295    0.2308 C.ar     1 ZINC000000968336   -0.1300
5      C5      2.5425   -3.2606    1.0220 C.ar     1 ZINC000000968336    0.1100
6      O6      2.4315   -4.5497    0.6062 O.3      1 ZINC000000968336   -0.5000
7      C7      1.9995   -2.8737    2.2388 C.ar     1 ZINC000000968336   -0.1100
8      C8      1.2859   -3.8828    3.1011 C.3      1 ZINC000000968336    0.0100
9      H9      1.2201   -4.8325    2.5702 H        1 ZINC000000968336    0.1000
10     C10    -0.1228   -3.3771    3.4184 C.3      1 ZINC000000968336   -0.1500
11     C11    -0.8901   -4.4542    4.1878 C.3      1 ZINC000000968336   -0.0300
12     N12    -2.2691   -4.0033    4.4176 N.4      1 ZINC000000968336   -0.3800
13     H13    -2.6816   -3.7220    3.5408 H        1 ZINC000000968336    0.4200
14     C14    -3.0533   -5.1018    4.9976 C.3      1 ZINC000000968336    0.0200
15     C15    -4.5155   -4.6708    5.1286 C.3      1 ZINC000000968336   -0.1800
16     C16    -2.9628   -6.3287    4.0880 C.3      1 ZINC000000968336   -0.1900
17     C17    -2.2635   -2.8633    5.3441 C.3      1 ZINC000000968336    0.0200
18     C18    -1.0404   -2.9553    6.2586 C.3      1 ZINC000000968336   -0.2000
19     C19    -2.2074   -1.5585    4.5470 C.3      1 ZINC000000968336   -0.2000
20     C20     2.0509   -4.0770    4.3849 C.ar     1 ZINC000000968336   -0.0900
21     C21     2.8327   -5.2035    4.5601 C.ar     1 ZINC000000968336   -0.1100
22     C22     3.5344   -5.3816    5.7377 C.ar     1 ZINC000000968336   -0.1100
23     C23     3.4547   -4.4329    6.7400 C.ar     1 ZINC000000968336   -0.1100
24     C24     2.6737   -3.3060    6.5645 C.ar     1 ZINC000000968336   -0.1100
25     C25     1.9753   -3.1258    5.3852 C.ar     1 ZINC000000968336   -0.1300
26     C26     2.1187   -1.5643    2.6618 C.ar     1 ZINC000000968336   -0.1000
27     H27     3.8116    0.9103    2.9053 H        1 ZINC000000968336    0.0800
28     H28     2.9197    1.4531    1.4637 H        1 ZINC000000968336    0.0700
29     H29     2.0377    1.0478    2.9557 H        1 ZINC000000968336    0.0700
30     H30     3.8219   -0.2943    0.0402 H        1 ZINC000000968336    0.1300
31     H31     3.6223   -2.6281   -0.7169 H        1 ZINC000000968336    0.1300
32     H32     3.1612   -5.1181    0.8882 H        1 ZINC000000968336    0.3900
33     H33    -0.0566   -2.4744    4.0256 H        1 ZINC000000968336    0.1000
34     H34    -0.6460   -3.1523    2.4890 H        1 ZINC000000968336    0.0900
35     H35    -0.9015   -5.3768    3.6075 H        1 ZINC000000968336    0.1400
36     H36    -0.4021   -4.6336    5.1458 H        1 ZINC000000968336    0.1400
37     H37    -2.6580   -5.3498    5.9826 H        1 ZINC000000968336    0.1300
38     H38    -4.9293   -4.4838    4.1377 H        1 ZINC000000968336    0.0800
39     H39    -5.0850   -5.4616    5.6168 H        1 ZINC000000968336    0.1100
40     H40    -4.5739   -3.7600    5.7245 H        1 ZINC000000968336    0.0800
41     H41    -3.3581   -6.0806    3.1029 H        1 ZINC000000968336    0.0800
42     H42    -1.9211   -6.6357    3.9946 H        1 ZINC000000968336    0.0800
43     H43    -3.5446   -7.1437    4.5183 H        1 ZINC000000968336    0.1100
44     H44    -3.1708   -2.8814    5.9480 H        1 ZINC000000968336    0.1400
45     H45    -0.1359   -2.7893    5.6734 H        1 ZINC000000968336    0.1000
46     H46    -1.1124   -2.1978    7.0390 H        1 ZINC000000968336    0.1000
47     H47    -1.0014   -3.9445    6.7149 H        1 ZINC000000968336    0.0800
48     H48    -3.0824   -1.4896    3.9008 H        1 ZINC000000968336    0.0800
49     H49    -2.1961   -0.7129    5.2347 H        1 ZINC000000968336    0.1100
50     H50    -1.3036   -1.5436    3.9378 H        1 ZINC000000968336    0.0900
51     H51     2.8949   -5.9447    3.7770 H        1 ZINC000000968336    0.1200
52     H52     4.1446   -6.2621    5.8748 H        1 ZINC000000968336    0.1300
53     H53     4.0024   -4.5724    7.6603 H        1 ZINC000000968336    0.1300
54     H54     2.6111   -2.5650    7.3477 H        1 ZINC000000968336    0.1300
55     H55     1.3651   -2.2453    5.2480 H        1 ZINC000000968336    0.1200
56     H56     1.6965   -1.2627    3.6090 H        1 ZINC000000968336    0.1200
@<TRIPOS>BOND
1     1     2     1
2     1     27    1
3     1     28    1
4     1     29    1
5     2     26    ar
6     2     3     ar
7     3     4     ar
8     3     30    1
9     4     5     ar
10    4     31    1
11    5     6     1
12    5     7     ar
13    6     32    1
14    7     8     1
15    7     26    ar
16    8     9     1
17    8     10    1
18    8     20    1
19    10    11    1
20    10    33    1
21    10    34    1
22    11    12    1
23    11    35    1
24    11    36    1
25    12    13    1
26    12    14    1
27    12    17    1
28    14    15    1
29    14    16    1
30    14    37    1
31    15    38    1
32    15    39    1
33    15    40    1
34    16    41    1
35    16    42    1
36    16    43    1
37    17    18    1
38    17    19    1
39    17    44    1
40    18    45    1
41    18    46    1
42    18    47    1
43    19    48    1
44    19    49    1
45    19    50    1
46    20    25    ar
47    20    21    ar
48    21    22    ar
49    21    51    1
50    22    23    ar
51    22    52    1
52    23    24    ar
53    23    53    1
54    24    25    ar
55    24    54    1
56    25    55    1
57    26    56    1
@<TRIPOS>SUBSTRUCTURE
1   ZINC000000968336 1     RESIDUE    1   A     ZIN   1
