@<TRIPOS>MOLECULE
ZINC000003956788
30   31    0    0    0
SMALL
USER_CHARGES
NO_NAME
@<TRIPOS>ATOM
1 C1       -1.3020     1.4115    -1.4368 C.3    1 <0>      -0.1400
2 C2       -1.1962    -0.0897    -1.3562 C.2    1 <0>       0.4800
3 O3       -2.1877    -0.7718    -1.4638 O.2    1 <0>      -0.5000
4 O4        0.0001    -0.6693    -1.1647 O.3    1 <0>      -0.2800
5 C5        0.0124    -2.0159    -0.9962 C.ar   1 <0>       0.1500
6 C6       -0.0346    -2.5585     0.2785 C.ar   1 <0>      -0.1300
7 C7       -0.0219    -3.9293     0.4486 C.ar   1 <0>      -0.0700
8 C8        0.0376    -4.7709    -0.6496 C.ar   1 <0>      -0.1200
9 C9        0.0853    -4.2483    -1.9244 C.ar   1 <0>      -0.0700
10 C10       0.0669    -2.8644    -2.1107 C.ar   1 <0>      -0.1500
11 C11       0.1172    -2.2983    -3.4723 C.2    1 <0>       0.5600
12 O12       0.1010    -1.0928    -3.6305 O.2    1 <0>      -0.4400
13 N13       0.1812    -3.1174    -4.5407 N.am   1 <0>      -0.6300
14 C14       0.2286    -2.5845    -5.8225 C.2    1 <0>       0.3100
15 N15       0.2223    -1.3184    -6.1010 N.2    1 <0>      -0.4800
16 C16       0.2731    -0.9872    -7.3777 C.2    1 <0>       0.1900
17 C17       0.3249    -2.0227    -8.2178 C.2    1 <0>      -0.2500
18 N18       0.3886    -1.9418    -9.6948 N.pl3  1 <0>       0.0700
19 O19       0.3972    -0.8553   -10.2454 O.2    1 <0>      -0.1400
20 O20       0.4325    -2.9616   -10.3593 O.2    1 <0>      -0.1500
21 S21       0.3113    -3.5027    -7.2623 S.3    1 <0>       0.2800
22 H22      -1.4686     1.8181    -0.4393 H      1 <0>       0.1100
23 H23      -0.3776     1.8194    -1.8457 H      1 <0>       0.1000
24 H24      -2.1362     1.6827    -2.0838 H      1 <0>       0.1100
25 H25      -0.0808    -1.9086     1.1398 H      1 <0>       0.1400
26 H26      -0.0583    -4.3472     1.4438 H      1 <0>       0.1400
27 H27       0.0471    -5.8413    -0.5067 H      1 <0>       0.1400
28 H28       0.1324    -4.9083    -2.7780 H      1 <0>       0.1300
29 H29       0.1942    -4.0791    -4.4144 H      1 <0>       0.4300
30 H30       0.2725     0.0387    -7.7151 H      1 <0>       0.2100
@<TRIPOS>BOND
1    1    2 1
2    1   22 1
3    1   23 1
4    1   24 1
5    2    3 2
6    2    4 1
7    4    5 1
8    5   10 ar
9    5    6 ar
10    6    7 ar
11    6   25 1
12    7    8 ar
13    7   26 1
14    8    9 ar
15    8   27 1
16    9   10 ar
17    9   28 1
18   10   11 1
19   11   12 2
20   11   13 am
21   13   14 1
22   13   29 1
23   14   21 1
24   14   15 2
25   15   16 1
26   16   17 2
27   16   30 1
28   17   18 1
29   17   21 1
30   18   19 2
31   18   20 2
