@<TRIPOS>MOLECULE
ZINC000003990451
66   68    0    0    0
SMALL
NO_CHARGES
@<TRIPOS>ATOM
1 C1             1.3436    -0.7703     0.8147 C.3
2 C2             0.1703     0.0891     0.3395 C.3
3 C3             0.4463     0.5889    -1.0799 C.3
4 N4            -1.0559    -0.7125     0.3453 N.pl3
5 C5            -1.0997    -1.9894    -0.3715 C.3
6 C6            -0.6634    -3.1162     0.5671 C.3
7 C7            -0.7091    -4.4498    -0.1814 C.3
8 C8            -0.2728    -5.5767     0.7571 C.3
9 O9            -0.3154    -6.8222     0.0580 O.3
10 C10            0.0758    -7.9463     0.8488 C.3
11 C11           -0.0063    -9.1995     0.0158 C.2
12 O12           -0.3646    -9.1363    -1.1411 O.2
13 N13            0.3185   -10.3906     0.5566 N.pl3
14 S14            0.2282   -11.7677    -0.3587 S.o2
15 C15            0.7476   -13.0932     0.7654 C.3
16 O16           -1.1525   -11.8911    -0.6710 O.2
17 O17            1.1960   -11.5730    -1.3809 O.2
18 C18           -2.1773    -0.2616     1.0304 C.ar
19 C19           -2.1396     0.9628     1.6972 C.ar
20 N20           -3.1999     1.3967     2.3497 N.ar
21 C21           -4.3115     0.6680     2.3746 C.ar
22 C22           -5.5031     1.1559     3.1075 C.ar
23 C23           -5.3658     1.6973     4.3852 C.ar
24 C24           -6.4793     2.1500     5.0629 C.ar
25 C25           -7.7299     2.0676     4.4772 C.ar
26 C26           -7.8724     1.5315     3.2099 C.ar
27 C27           -6.7655     1.0808     2.5200 C.ar
28 C28           -4.3536    -0.5649     1.7042 C.ar
29 C29           -5.5894    -1.3822     1.7277 C.ar
30 C30           -6.2832    -1.5677     2.9230 C.ar
31 C31           -7.4337    -2.3295     2.9386 C.ar
32 C32           -7.8989    -2.9087     1.7716 C.ar
33 C33           -7.2146    -2.7287     0.5829 C.ar
34 C34           -6.0661    -1.9642     0.5537 C.ar
35 N35           -3.2826    -0.9939     1.0442 N.ar
36 H36            2.2672    -0.1959     0.7430 H
37 H37            1.1801    -1.0676     1.8506 H
38 H38            1.4194    -1.6596     0.1891 H
39 H39            0.0502     0.9416     1.0080 H
40 H40            0.4806    -0.2593    -1.7636 H
41 H41           -0.3476     1.2703    -1.3860 H
42 H42            1.4024     1.1119    -1.1015 H
43 H43           -2.1162    -2.1775    -0.7170 H
44 H44           -0.4265    -1.9487    -1.2278 H
45 H45            0.3532    -2.9282     0.9126 H
46 H46           -1.3365    -3.1570     1.4234 H
47 H47           -1.7256    -4.6379    -0.5270 H
48 H48           -0.0359    -4.4091    -1.0378 H
49 H49            0.7438    -5.3886     1.1026 H
50 H50           -0.9459    -5.6174     1.6134 H
51 H51            1.0996    -7.8074     1.1963 H
52 H52           -0.5901    -8.0362     1.7070 H
53 H53            0.0736   -13.1286     1.6213 H
54 H54            0.7179   -14.0477     0.2399 H
55 H55            1.7632   -12.8998     1.1106 H
56 H56           -1.2383     1.5575     1.6793 H
57 H57           -4.3901     1.7618     4.8436 H
58 H58           -6.3744     2.5692     6.0527 H
59 H59           -8.5986     2.4229     5.0117 H
60 H60           -8.8512     1.4698     2.7578 H
61 H61           -6.8779     0.6625     1.5307 H
62 H62           -5.9208    -1.1163     3.8347 H
63 H63           -7.9718    -2.4741     3.8638 H
64 H64           -8.7998    -3.5042     1.7887 H
65 H65           -7.5824    -3.1836    -0.3249 H
66 H66           -5.5327    -1.8243    -0.3749 H
@<TRIPOS>BOND
1    1    2 1
2    1   36 1
3    1   37 1
4    1   38 1
5    2    3 1
6    2    4 1
7    2   39 1
8    3   40 1
9    3   41 1
10    3   42 1
11    4    5 1
12    4   18 1
13    5    6 1
14    5   43 1
15    5   44 1
16    6    7 1
17    6   45 1
18    6   46 1
19    7    8 1
20    7   47 1
21    7   48 1
22    8    9 1
23    8   49 1
24    8   50 1
25    9   10 1
26   10   11 1
27   10   51 1
28   10   52 1
29   11   12 2
30   11   13 1
31   13   14 1
32   14   15 1
33   14   16 2
34   14   17 2
35   15   53 1
36   15   54 1
37   15   55 1
38   18   35 ar
39   18   19 ar
40   19   20 ar
41   19   56 1
42   20   21 ar
43   21   22 1
44   21   28 ar
45   22   27 ar
46   22   23 ar
47   23   24 ar
48   23   57 1
49   24   25 ar
50   24   58 1
51   25   26 ar
52   25   59 1
53   26   27 ar
54   26   60 1
55   27   61 1
56   28   29 1
57   28   35 ar
58   29   34 ar
59   29   30 ar
60   30   31 ar
61   30   62 1
62   31   32 ar
63   31   63 1
64   32   33 ar
65   32   64 1
66   33   34 ar
67   33   65 1
68   34   66 1
