@<TRIPOS>MOLECULE
ZINC000003779042
32    33    1     0     0
SMALL
USER_CHARGES
@<TRIPOS>ATOM
1      C1     -0.0184    1.5028    0.0103 C.3      1 ZINC000003779042   -0.0900
2      C2      0.0021   -0.0041    0.0020 C.2      1 ZINC000003779042   -0.2500
3      C3     -1.1526   -0.7039    0.0037 C.2      1 ZINC000003779042    0.1600
4      N4     -1.1160   -2.0718   -0.0039 N.am     1 ZINC000003779042   -0.5300
5      C5     -2.3687   -2.8312   -0.0021 C.3      1 ZINC000003779042    0.3100
6      H6     -3.2193   -2.1584    0.1071 H        1 ZINC000003779042    0.1300
7      C7     -2.4992   -3.6565   -1.3014 C.3      1 ZINC000003779042   -0.1800
8      C8     -3.1605   -4.9757   -0.8435 C.3      1 ZINC000003779042    0.0800
9      H9     -2.5046   -5.8223   -1.0463 H        1 ZINC000003779042    0.1100
10     N10    -4.4535   -5.1591   -1.5074 N.2      1 ZINC000003779042   -0.3700
11     N11    -4.4962   -5.3273   -2.6179 N.1      1 ZINC000003779042    0.2800
12     N12    -4.5389   -5.4954   -3.7284 N.pl3    1 ZINC000003779042   -0.1600
13     C13    -3.3514   -4.7913    0.6783 C.3      1 ZINC000003779042    0.1100
14     H14    -4.3537   -4.4206    0.8929 H        1 ZINC000003779042    0.1100
15     C15    -3.1055   -6.1124    1.4099 C.3      1 ZINC000003779042    0.0800
16     O16    -3.3996   -5.9498    2.7988 O.3      1 ZINC000003779042   -0.5600
17     O17    -2.3620   -3.8096    1.0602 O.3      1 ZINC000003779042   -0.3400
18     C18     0.0598   -2.7257   -0.0134 C.2      1 ZINC000003779042    0.7000
19     O19     0.0693   -3.9416   -0.0204 O.2      1 ZINC000003779042   -0.5200
20     N20     1.2256   -2.0531   -0.0157 N.am     1 ZINC000003779042   -0.6600
21     C21     1.2322   -0.7047   -0.0135 C.2      1 ZINC000003779042    0.5500
22     O22     2.2865   -0.0953   -0.0160 O.2      1 ZINC000003779042   -0.5100
23     H23     1.0042    1.8801    0.0026 H        1 ZINC000003779042    0.0800
24     H24    -0.5455    1.8639   -0.8728 H        1 ZINC000003779042    0.0700
25     H25    -0.5286    1.8543    0.9071 H        1 ZINC000003779042    0.0700
26     H26    -2.1006   -0.1866    0.0113 H        1 ZINC000003779042    0.1800
27     H27    -3.1353   -3.1397   -2.0199 H        1 ZINC000003779042    0.1000
28     H28    -1.5163   -3.8510   -1.7306 H        1 ZINC000003779042    0.1100
29     H29    -3.7492   -6.8855    0.9903 H        1 ZINC000003779042    0.0700
30     H30    -2.0621   -6.4046    1.2913 H        1 ZINC000003779042    0.0600
31     H31    -3.2657   -6.7496    3.3255 H        1 ZINC000003779042    0.3900
32     H32     2.0644   -2.5402   -0.0226 H        1 ZINC000003779042    0.4300
@<TRIPOS>BOND
1     1     2     1
2     1     23    1
3     1     24    1
4     1     25    1
5     2     21    1
6     2     3     2
7     3     4     1
8     3     26    1
9     4     5     1
10    4     18    am
11    5     6     1
12    5     17    1
13    5     7     1
14    7     8     1
15    7     27    1
16    7     28    1
17    8     9     1
18    8     10    1
19    8     13    1
20    10    11    2
21    11    12    2
22    13    14    1
23    13    15    1
24    13    17    1
25    15    16    1
26    15    29    1
27    15    30    1
28    16    31    1
29    18    19    2
30    18    20    am
31    20    21    am
32    20    32    1
33    21    22    2
@<TRIPOS>SUBSTRUCTURE
1   ZINC000003779042 1     RESIDUE    1   A     ZIN   1
