@<TRIPOS>MOLECULE
ZINC000000014007
42    42    1     0     0
SMALL
USER_CHARGES
@<TRIPOS>ATOM
1      C1     -0.0187    1.5258    0.0104 C.3      1 ZINC000000014007   -0.1900
2      C2      0.0021   -0.0041    0.0020 C.3      1 ZINC000000014007    0.0200
3      C3      0.7421   -0.5109    1.2415 C.3      1 ZINC000000014007   -0.1900
4      N4     -1.3761   -0.5125    0.0124 N.4      1 ZINC000000014007   -0.5000
5      H5     -1.8225   -0.2564    0.8803 H        1 ZINC000000014007    0.4300
6      H6     -1.8879   -0.1129   -0.7598 H        1 ZINC000000014007    0.4300
7      C7     -1.3591   -1.9758   -0.1163 C.3      1 ZINC000000014007   -0.0500
8      C8     -2.7945   -2.5054   -0.1054 C.3      1 ZINC000000014007    0.0900
9      H9     -3.3047   -2.1538    0.7914 H        1 ZINC000000014007    0.1300
10     O10    -3.4857   -2.0320   -1.2631 O.3      1 ZINC000000014007   -0.5400
11     C11    -2.7738   -4.0352   -0.1139 C.3      1 ZINC000000014007    0.0300
12     O12    -4.1082   -4.5304    0.0137 O.3      1 ZINC000000014007   -0.3000
13     C13    -4.2671   -5.8800    0.0234 C.ar     1 ZINC000000014007    0.1200
14     C14    -3.1609   -6.7107   -0.0816 C.ar     1 ZINC000000014007   -0.2100
15     C15    -3.3251   -8.0823   -0.0710 C.ar     1 ZINC000000014007   -0.0600
16     C16    -4.5906   -8.6274    0.0439 C.ar     1 ZINC000000014007   -0.0900
17     C17    -4.7668  -10.1240    0.0547 C.3      1 ZINC000000014007   -0.1000
18     C18    -4.6950  -10.6280    1.4732 C.2      1 ZINC000000014007    0.5200
19     N19    -4.8273  -11.9448    1.7280 N.am     1 ZINC000000014007   -0.8600
20     O20    -4.5181   -9.8486    2.3854 O.2      1 ZINC000000014007   -0.5400
21     C21    -5.6946   -7.8017    0.1492 C.ar     1 ZINC000000014007   -0.0600
22     C22    -5.5352   -6.4295    0.1443 C.ar     1 ZINC000000014007   -0.1400
23     H23     1.0039    1.9031    0.0027 H        1 ZINC000000014007    0.1100
24     H24    -0.5459    1.8868   -0.8726 H        1 ZINC000000014007    0.0800
25     H25    -0.5289    1.8773    0.9072 H        1 ZINC000000014007    0.0800
26     H26     0.5123   -0.3556   -0.8948 H        1 ZINC000000014007    0.1400
27     H27     1.7647   -0.1336    1.2338 H        1 ZINC000000014007    0.1100
28     H28     0.2319   -0.1594    2.1383 H        1 ZINC000000014007    0.0800
29     H29     0.7568   -1.6008    1.2356 H        1 ZINC000000014007    0.0800
30     H30    -0.8769   -2.2525   -1.0538 H        1 ZINC000000014007    0.1400
31     H31    -0.8062   -2.4075    0.7180 H        1 ZINC000000014007    0.1500
32     H32    -3.0863   -2.3073   -2.0996 H        1 ZINC000000014007    0.3900
33     H33    -2.3435   -4.3876   -1.0513 H        1 ZINC000000014007    0.0800
34     H34    -2.1714   -4.3950    0.7203 H        1 ZINC000000014007    0.0800
35     H35    -2.1723   -6.2854   -0.1720 H        1 ZINC000000014007    0.1200
36     H36    -2.4643   -8.7294   -0.1527 H        1 ZINC000000014007    0.1300
37     H37    -5.7366  -10.3788   -0.3727 H        1 ZINC000000014007    0.1100
38     H38    -3.9764  -10.5872   -0.5359 H        1 ZINC000000014007    0.1100
39     H39    -4.9688  -12.5682    0.9984 H        1 ZINC000000014007    0.4000
40     H40    -4.7811  -12.2692    2.6409 H        1 ZINC000000014007    0.4000
41     H41    -6.6820   -8.2299    0.2391 H        1 ZINC000000014007    0.1300
42     H42    -6.3979   -5.7849    0.2266 H        1 ZINC000000014007    0.1300
@<TRIPOS>BOND
1     1     2     1
2     1     23    1
3     1     24    1
4     1     25    1
5     2     3     1
6     2     4     1
7     2     26    1
8     3     27    1
9     3     28    1
10    3     29    1
11    4     5     1
12    4     6     1
13    4     7     1
14    7     8     1
15    7     30    1
16    7     31    1
17    8     9     1
18    8     10    1
19    8     11    1
20    10    32    1
21    11    12    1
22    11    33    1
23    11    34    1
24    12    13    1
25    13    22    ar
26    13    14    ar
27    14    15    ar
28    14    35    1
29    15    16    ar
30    15    36    1
31    16    17    1
32    16    21    ar
33    17    18    1
34    17    37    1
35    17    38    1
36    18    19    am
37    18    20    2
38    19    39    1
39    19    40    1
40    21    22    ar
41    21    41    1
42    22    42    1
@<TRIPOS>SUBSTRUCTURE
1   ZINC000000014007 1     RESIDUE    1   A     ZIN   1
