@<TRIPOS>MOLECULE
ZINC000000591993
52   53    0    0    0
SMALL
USER_CHARGES
NO_NAME
@<TRIPOS>ATOM
1 C1       -1.3026    -0.6493     1.2902 C.3    1 <0>       0.0300
2 O2       -1.1750    -1.8609     0.5435 O.3    1 <0>      -0.3500
3 C3       -0.3192    -2.7882     1.0218 C.2    1 <0>       0.5300
4 O4        0.3016    -2.5723     2.0459 O.2    1 <0>      -0.4700
5 C5       -0.1438    -4.0107     0.3330 C.2    1 <0>      -0.2200
6 C6       -1.1221    -4.9318     0.3687 C.2    1 <0>       0.1800
7 C7       -2.3885    -4.6433     1.1329 C.3    1 <0>      -0.1300
8 N8       -0.9825    -6.1280    -0.2807 N.pl3  1 <0>      -0.6300
9 C9        0.2559    -6.5634    -0.6665 C.2    1 <0>       0.2500
10 C10       0.4609    -8.0169    -1.0075 C.3    1 <0>      -0.1200
11 C11       1.2919    -5.7105    -0.7454 C.2    1 <0>      -0.2700
12 C12       2.5597    -6.1967    -1.1406 C.2    1 <0>       0.5200
13 O13       2.7038    -7.3757    -1.4049 O.2    1 <0>      -0.5200
14 O14       3.6097    -5.3531    -1.2247 O.3    1 <0>      -0.3500
15 C15       4.8605    -5.9125    -1.6302 C.3    1 <0>       0.0700
16 C16       5.9232    -4.8124    -1.6672 C.3    1 <0>      -0.1000
17 C17       7.2872    -5.4311    -1.9795 C.3    1 <0>      -0.1400
18 C18       5.5650    -3.7936    -2.7511 C.3    1 <0>      -0.1400
19 C19       1.1295    -4.2494    -0.4280 C.3    1 <0>       0.0700
20 H20       1.9719    -3.9183     0.1794 H      1 <0>       0.1100
21 C21       1.1044    -3.4623    -1.7128 C.ar   1 <0>      -0.0200
22 C22       0.2506    -3.8336    -2.7342 C.ar   1 <0>      -0.1000
23 C23       0.2276    -3.1115    -3.9130 C.ar   1 <0>      -0.0700
24 C24       1.0582    -2.0180    -4.0698 C.ar   1 <0>      -0.1100
25 C25       1.9117    -1.6459    -3.0477 C.ar   1 <0>      -0.0600
26 C26       1.9316    -2.3653    -1.8677 C.ar   1 <0>      -0.0200
27 N27       2.8453    -1.9670    -0.7734 N.pl3  1 <0>       0.0200
28 O28       4.0112    -1.7116    -1.0162 O.2    1 <0>      -0.1400
29 O29       2.4313    -1.8946     0.3698 O.2    1 <0>      -0.1500
30 H30      -2.0198     0.0073     0.7976 H      1 <0>       0.1000
31 H31      -1.6516    -0.8781     2.2972 H      1 <0>       0.0600
32 H32      -0.3338    -0.1528     1.3455 H      1 <0>       0.0600
33 H33      -3.1475    -4.2640     0.4486 H      1 <0>       0.1000
34 H34      -2.7471    -5.5599     1.6013 H      1 <0>       0.0900
35 H35      -2.1870    -3.8972     1.9016 H      1 <0>       0.0900
36 H36      -1.7648    -6.6698    -0.4682 H      1 <0>       0.4200
37 H37      -0.4800    -8.5542    -0.8886 H      1 <0>       0.0700
38 H38       0.8009    -8.1036    -2.0395 H      1 <0>       0.1000
39 H39       1.2101    -8.4444    -0.3410 H      1 <0>       0.1100
40 H40       5.1606    -6.6838    -0.9208 H      1 <0>       0.0700
41 H41       4.7575    -6.3517    -2.6224 H      1 <0>       0.0700
42 H42       5.9636    -4.3136    -0.6988 H      1 <0>       0.0800
43 H43       7.2467    -5.9299    -2.9479 H      1 <0>       0.0600
44 H44       8.0442    -4.6474    -2.0059 H      1 <0>       0.0700
45 H45       7.5423    -6.1569    -1.2074 H      1 <0>       0.0600
46 H46       6.3221    -3.0099    -2.7774 H      1 <0>       0.0600
47 H47       5.5246    -4.2924    -3.7194 H      1 <0>       0.0500
48 H48       4.5933    -3.3528    -2.5285 H      1 <0>       0.0600
49 H49      -0.3984    -4.6881    -2.6117 H      1 <0>       0.1400
50 H50      -0.4391    -3.4021    -4.7114 H      1 <0>       0.1400
51 H51       1.0408    -1.4543    -4.9909 H      1 <0>       0.1500
52 H52       2.5609    -0.7916    -3.1704 H      1 <0>       0.1500
@<TRIPOS>BOND
1    1    2 1
2    1   30 1
3    1   31 1
4    1   32 1
5    2    3 1
6    3    4 2
7    3    5 1
8    5   19 1
9    5    6 2
10    6    7 1
11    6    8 1
12    7   33 1
13    7   34 1
14    7   35 1
15    8    9 1
16    8   36 1
17    9   10 1
18    9   11 2
19   10   37 1
20   10   38 1
21   10   39 1
22   11   12 1
23   11   19 1
24   12   13 2
25   12   14 1
26   14   15 1
27   15   16 1
28   15   40 1
29   15   41 1
30   16   17 1
31   16   18 1
32   16   42 1
33   17   43 1
34   17   44 1
35   17   45 1
36   18   46 1
37   18   47 1
38   18   48 1
39   19   20 1
40   19   21 1
41   21   26 ar
42   21   22 ar
43   22   23 ar
44   22   49 1
45   23   24 ar
46   23   50 1
47   24   25 ar
48   24   51 1
49   25   26 ar
50   25   52 1
51   26   27 1
52   27   28 2
53   27   29 2
