@<TRIPOS>MOLECULE
ZINC000001554588
21   20    0    0    0
SMALL
USER_CHARGES
NO_NAME
@<TRIPOS>ATOM
1 C1       -0.0184     1.5028     0.0103 C.3    1 <0>      -0.1700
2 C2        0.0021    -0.0041     0.0020 C.2    1 <0>       0.5100
3 O3        1.0605    -0.5961    -0.0113 O.2    1 <0>      -0.5500
4 N4       -1.1558    -0.6938     0.0094 N.am   1 <0>      -0.7300
5 C5       -1.1360    -2.1586     0.0013 C.3    1 <0>       0.1200
6 C6       -2.5713    -2.6882     0.0122 C.3    1 <0>      -0.1100
7 C7       -2.5506    -4.2180     0.0038 C.3    1 <0>      -0.6700
8 S8       -4.2524    -4.8459     0.0166 S.o2   1 <0>       2.6400
9 O9       -4.2159    -6.3001     0.0085 O.co2  1 <0>      -1.0700
10 O10      -4.9193    -4.3687     1.2181 O.co2  1 <0>      -1.0600
11 O11      -4.9421    -4.3559    -1.1667 O.co2  1 <0>      -1.0600
12 H12       1.0042     1.8801     0.0026 H      1 <0>       0.0900
13 H13      -0.5455     1.8639    -0.8728 H      1 <0>       0.0900
14 H14      -0.5286     1.8543     0.9071 H      1 <0>       0.0900
15 H15      -2.0023    -0.2203     0.0200 H      1 <0>       0.4000
16 H16      -0.6258    -2.5101    -0.8955 H      1 <0>       0.0700
17 H17      -0.6088    -2.5197     0.8844 H      1 <0>       0.0700
18 H18      -3.0815    -2.3367     0.9090 H      1 <0>       0.0800
19 H19      -3.0985    -2.3271    -0.8709 H      1 <0>       0.0800
20 H20      -2.0404    -4.5695    -0.8930 H      1 <0>       0.1000
21 H21      -2.0234    -4.5791     0.8868 H      1 <0>       0.1000
@<TRIPOS>BOND
1    1    2 1
2    1   12 1
3    1   13 1
4    1   14 1
5    2    3 2
6    2    4 am
7    4    5 1
8    4   15 1
9    5    6 1
10    5   16 1
11    5   17 1
12    6    7 1
13    6   18 1
14    6   19 1
15    7    8 1
16    7   20 1
17    7   21 1
18    8    9 ar
19    8   10 ar
20    8   11 ar
