@<TRIPOS>MOLECULE
ZINC000003876186
45    48    1     0     0
SMALL
USER_CHARGES
@<TRIPOS>ATOM
1      C1     -0.0187    1.5258    0.0104 C.3      1 ZINC000003876186   -0.1400
2      C2      0.0021   -0.0041    0.0020 C.3      1 ZINC000003876186   -0.1200
3      C3     -1.4074   -0.5254    0.1831 C.3      1 ZINC000003876186   -0.1000
4      C4     -1.9734    0.0981    1.4733 C.3      1 ZINC000003876186   -0.1100
5      C5     -1.0815   -0.2278    2.6625 C.3      1 ZINC000003876186   -0.0400
6      H6     -1.0790   -1.3097    2.7952 H        1 ZINC000003876186    0.0800
7      C7     -1.5939    0.3931    3.9299 C.ar     1 ZINC000003876186   -0.0800
8      C8     -2.9668    0.5100    4.0967 C.ar     1 ZINC000003876186   -0.1100
9      C9     -3.4902    1.0641    5.2459 C.ar     1 ZINC000003876186   -0.1100
10     C10    -2.6359    1.5072    6.2450 C.ar     1 ZINC000003876186    0.1200
11     O11    -3.1411    2.0494    7.3841 O.3      1 ZINC000003876186   -0.7100
12     S12    -3.4028    1.0360    8.4891 S.o2     1 ZINC000003876186    2.7600
13     O13    -4.2539    1.6936    9.4684 O.co2    1 ZINC000003876186   -1.0600
14     O14    -4.0636   -0.1011    7.8674 O.co2    1 ZINC000003876186   -1.0800
15     O15    -2.1072    0.6775    9.0449 O.co2    1 ZINC000003876186   -1.0800
16     C16    -1.2665    1.3941    6.0767 C.ar     1 ZINC000003876186   -0.1300
17     C17    -0.7403    0.8423    4.9167 C.ar     1 ZINC000003876186   -0.0600
18     C18     0.7591    0.7783    4.7923 C.3      1 ZINC000003876186   -0.0800
19     C19     1.1837   -0.1526    3.6575 C.3      1 ZINC000003876186   -0.1100
20     C20     0.3652    0.2228    2.4220 C.3      1 ZINC000003876186   -0.0800
21     H21     0.4107    1.3003    2.2635 H        1 ZINC000003876186    0.0900
22     C22     0.8620   -0.5117    1.1931 C.3      1 ZINC000003876186   -0.0800
23     H23     0.7532   -1.5893    1.3162 H        1 ZINC000003876186    0.0800
24     C24     2.2808   -0.1554    0.7309 C.3      1 ZINC000003876186   -0.1100
25     C25     2.2432   -0.5117   -0.7805 C.3      1 ZINC000003876186   -0.1800
26     C26     0.7516   -0.4833   -1.2044 C.2      1 ZINC000003876186    0.3800
27     O27     0.2970   -0.7711   -2.2856 O.2      1 ZINC000003876186   -0.4400
28     H28     1.0037    1.9031   -0.0115 H        1 ZINC000003876186    0.0600
29     H29    -0.5581    1.8866   -0.8653 H        1 ZINC000003876186    0.0600
30     H30    -0.5164    1.8774    0.9141 H        1 ZINC000003876186    0.0800
31     H31    -2.0217   -0.2340   -0.6688 H        1 ZINC000003876186    0.0700
32     H32    -1.3910   -1.6115    0.2738 H        1 ZINC000003876186    0.0700
33     H33    -2.0319    1.1800    1.3538 H        1 ZINC000003876186    0.0700
34     H34    -2.9729   -0.2971    1.6548 H        1 ZINC000003876186    0.0700
35     H35    -3.6315    0.1641    3.3189 H        1 ZINC000003876186    0.1300
36     H36    -4.5597    1.1529    5.3673 H        1 ZINC000003876186    0.1300
37     H37    -0.6015    1.7387    6.8547 H        1 ZINC000003876186    0.1400
38     H38     1.1439    1.7790    4.5957 H        1 ZINC000003876186    0.0800
39     H39     1.1796    0.4133    5.7294 H        1 ZINC000003876186    0.0800
40     H40     2.2460   -0.0206    3.4517 H        1 ZINC000003876186    0.0700
41     H41     0.9890   -1.1875    3.9387 H        1 ZINC000003876186    0.0700
42     H42     2.4787    0.9070    0.8732 H        1 ZINC000003876186    0.0800
43     H43     3.0214   -0.7614    1.2529 H        1 ZINC000003876186    0.0800
44     H44     2.8241    0.2141   -1.3497 H        1 ZINC000003876186    0.1000
45     H45     2.6407   -1.5144   -0.9377 H        1 ZINC000003876186    0.0900
@<TRIPOS>BOND
1     1     2     1
2     1     28    1
3     1     29    1
4     1     30    1
5     2     22    1
6     2     26    1
7     2     3     1
8     3     4     1
9     3     31    1
10    3     32    1
11    4     5     1
12    4     33    1
13    4     34    1
14    5     6     1
15    5     20    1
16    5     7     1
17    7     17    ar
18    7     8     ar
19    8     9     ar
20    8     35    1
21    9     10    ar
22    9     36    1
23    10    11    1
24    10    16    ar
25    11    12    1
26    12    13    ar
27    12    14    ar
28    12    15    ar
29    16    17    ar
30    16    37    1
31    17    18    1
32    18    19    1
33    18    38    1
34    18    39    1
35    19    20    1
36    19    40    1
37    19    41    1
38    20    21    1
39    20    22    1
40    22    23    1
41    22    24    1
42    24    25    1
43    24    42    1
44    24    43    1
45    25    26    1
46    25    44    1
47    25    45    1
48    26    27    2
@<TRIPOS>SUBSTRUCTURE
1   ZINC000003876186 1     RESIDUE    1   A     ZIN   1
