@<TRIPOS>MOLECULE
ZINC000001530707
51    52    1     0     0
SMALL
USER_CHARGES
@<TRIPOS>ATOM
1      C1      0.1302    1.1300    0.8440 C.3      1 ZINC000001530707   -0.1500
2      C2      0.5502   -0.3251    0.6268 C.3      1 ZINC000001530707   -0.1800
3      C3      0.3962   -0.6803   -0.8297 C.2      1 ZINC000001530707    0.3500
4      O4      0.0969    0.1723   -1.6307 O.2      1 ZINC000001530707   -0.4100
5      C5      0.6157   -2.0996   -1.2864 C.3      1 ZINC000001530707    0.0000
6      C6      1.5940   -2.7951   -0.3377 C.3      1 ZINC000001530707   -0.1400
7      C7      2.8987   -1.9982   -0.2763 C.3      1 ZINC000001530707    0.0100
8      H8      2.6717   -0.9361   -0.1844 H        1 ZINC000001530707    0.1400
9      C9      3.7039   -2.2389   -1.5549 C.3      1 ZINC000001530707   -0.2100
10     N10     3.6841   -2.4335    0.8862 N.4      1 ZINC000001530707   -0.3800
11     H11     3.9069   -3.4133    0.7939 H        1 ZINC000001530707    0.4300
12     C12     4.9268   -1.6534    0.9575 C.3      1 ZINC000001530707   -0.0500
13     C13     2.9025   -2.2225    2.1120 C.3      1 ZINC000001530707   -0.0600
14     C14    -0.6982   -2.8374   -1.2826 C.ar     1 ZINC000001530707   -0.0900
15     C15    -0.8812   -3.9188   -0.4411 C.ar     1 ZINC000001530707   -0.1200
16     C16    -2.0865   -4.5957   -0.4376 C.ar     1 ZINC000001530707   -0.1100
17     C17    -3.1090   -4.1909   -1.2752 C.ar     1 ZINC000001530707   -0.1100
18     C18    -2.9263   -3.1089   -2.1160 C.ar     1 ZINC000001530707   -0.1100
19     C19    -1.7225   -2.4294   -2.1164 C.ar     1 ZINC000001530707   -0.1000
20     C20     1.1857   -2.0958   -2.6815 C.ar     1 ZINC000001530707   -0.0900
21     C21     1.2580   -3.2735   -3.4017 C.ar     1 ZINC000001530707   -0.1000
22     C22     1.7808   -3.2701   -4.6814 C.ar     1 ZINC000001530707   -0.1200
23     C23     2.2308   -2.0889   -5.2410 C.ar     1 ZINC000001530707   -0.1100
24     C24     2.1576   -0.9110   -4.5211 C.ar     1 ZINC000001530707   -0.1200
25     C25     1.6309   -0.9137   -3.2431 C.ar     1 ZINC000001530707   -0.1200
26     H26     0.8141    1.7892    0.3093 H        1 ZINC000001530707    0.0600
27     H27    -0.8827    1.2757    0.4688 H        1 ZINC000001530707    0.0700
28     H28     0.1602    1.3617    1.9087 H        1 ZINC000001530707    0.0700
29     H29     1.5915   -0.4509    0.9233 H        1 ZINC000001530707    0.0800
30     H30    -0.0806   -0.9791    1.2289 H        1 ZINC000001530707    0.1100
31     H31     1.1557   -2.8518    0.6587 H        1 ZINC000001530707    0.1000
32     H32     1.7999   -3.8016   -0.7019 H        1 ZINC000001530707    0.1100
33     H33     3.7192   -3.3054   -1.7793 H        1 ZINC000001530707    0.0900
34     H34     3.2418   -1.7001   -2.3821 H        1 ZINC000001530707    0.1200
35     H35     4.7244   -1.8826   -1.4140 H        1 ZINC000001530707    0.0800
36     H36     4.6861   -0.5950    1.0573 H        1 ZINC000001530707    0.1200
37     H37     5.5096   -1.9764    1.8202 H        1 ZINC000001530707    0.1300
38     H38     5.5068   -1.8099    0.0480 H        1 ZINC000001530707    0.1300
39     H39     3.5265   -2.4305    2.9812 H        1 ZINC000001530707    0.1300
40     H40     2.5589   -1.1888    2.1504 H        1 ZINC000001530707    0.1200
41     H41     2.0421   -2.8917    2.1140 H        1 ZINC000001530707    0.1300
42     H42    -0.0824   -4.2351    0.2133 H        1 ZINC000001530707    0.1200
43     H43    -2.2292   -5.4410    0.2193 H        1 ZINC000001530707    0.1300
44     H44    -4.0504   -4.7201   -1.2729 H        1 ZINC000001530707    0.1300
45     H45    -3.7251   -2.7929   -2.7706 H        1 ZINC000001530707    0.1300
46     H46    -1.5798   -1.5841   -2.7733 H        1 ZINC000001530707    0.1300
47     H47     0.9064   -4.1963   -2.9645 H        1 ZINC000001530707    0.1200
48     H48     1.8380   -4.1903   -5.2438 H        1 ZINC000001530707    0.1300
49     H49     2.6399   -2.0863   -6.2405 H        1 ZINC000001530707    0.1300
50     H50     2.5095    0.0118   -4.9582 H        1 ZINC000001530707    0.1300
51     H51     1.5737    0.0065   -2.6806 H        1 ZINC000001530707    0.1400
@<TRIPOS>BOND
1     1     2     1
2     1     26    1
3     1     27    1
4     1     28    1
5     2     3     1
6     2     29    1
7     2     30    1
8     3     4     2
9     3     5     1
10    5     6     1
11    5     14    1
12    5     20    1
13    6     7     1
14    6     31    1
15    6     32    1
16    7     8     1
17    7     9     1
18    7     10    1
19    9     33    1
20    9     34    1
21    9     35    1
22    10    11    1
23    10    12    1
24    10    13    1
25    12    36    1
26    12    37    1
27    12    38    1
28    13    39    1
29    13    40    1
30    13    41    1
31    14    19    ar
32    14    15    ar
33    15    16    ar
34    15    42    1
35    16    17    ar
36    16    43    1
37    17    18    ar
38    17    44    1
39    18    19    ar
40    18    45    1
41    19    46    1
42    20    25    ar
43    20    21    ar
44    21    22    ar
45    21    47    1
46    22    23    ar
47    22    48    1
48    23    24    ar
49    23    49    1
50    24    25    ar
51    24    50    1
52    25    51    1
@<TRIPOS>SUBSTRUCTURE
1   ZINC000001530707 1     RESIDUE    1   A     ZIN   1
