@<TRIPOS>MOLECULE
ZINC000003982483
61    62    1     0     0
SMALL
USER_CHARGES
@<TRIPOS>ATOM
1      C1      1.1488    2.1970   -0.4561 C.3      1 ZINC000003982483   -0.1500
2      C2      0.9557    0.6822   -0.3622 C.3      1 ZINC000003982483   -0.1300
3      C3      1.5791    0.0116   -1.5880 C.3      1 ZINC000003982483   -0.1100
4      C4      1.3860   -1.5032   -1.4942 C.3      1 ZINC000003982483   -0.0900
5      H5      1.7761   -1.8760   -0.5471 H        1 ZINC000003982483    0.0800
6      C6      2.0851   -2.2067   -2.6756 C.3      1 ZINC000003982483   -0.1100
7      C7      0.9546   -2.9327   -3.4361 C.3      1 ZINC000003982483    0.0500
8      H8      0.5918   -2.3154   -4.2579 H        1 ZINC000003982483    0.0700
9      C9      1.4390   -4.2627   -3.9533 C.2      1 ZINC000003982483    0.5300
10     O10     1.1679   -5.2816   -3.3539 O.2      1 ZINC000003982483   -0.5000
11     N11     2.1733   -4.3199   -5.0820 N.am     1 ZINC000003982483   -0.7200
12     C12     2.6442   -5.6129   -5.5848 C.3      1 ZINC000003982483    0.1400
13     H13     1.8944   -6.3771   -5.3803 H        1 ZINC000003982483    0.1100
14     C14     3.9545   -5.9846   -4.8878 C.3      1 ZINC000003982483    0.0900
15     H15     4.3562   -6.8957   -5.3314 H        1 ZINC000003982483    0.0700
16     C16     4.9632   -4.8469   -5.0579 C.3      1 ZINC000003982483   -0.1500
17     O17     3.7096   -6.2000   -3.4966 O.3      1 ZINC000003982483   -0.5500
18     C18     2.8780   -5.5187   -7.0939 C.3      1 ZINC000003982483    0.0800
19     H19     3.6396   -4.7659   -7.2974 H        1 ZINC000003982483    0.1000
20     O20     3.3164   -6.7858   -7.5882 O.3      1 ZINC000003982483   -0.3400
21     C21     3.5901   -6.8021   -8.9907 C.3      1 ZINC000003982483    0.0900
22     H22     3.9364   -7.7937   -9.2820 H        1 ZINC000003982483    0.1300
23     S23     4.8730   -5.5773   -9.3709 S.3      1 ZINC000003982483   -0.2600
24     C24     6.3617   -6.3023   -8.6301 C.3      1 ZINC000003982483   -0.1200
25     C25     2.3128   -6.4602   -9.7623 C.3      1 ZINC000003982483    0.0700
26     H26     1.5546   -7.2183   -9.5658 H        1 ZINC000003982483    0.0900
27     O27     2.5968   -6.4205  -11.1622 O.3      1 ZINC000003982483   -0.5500
28     C28     1.7993   -5.0919   -9.3038 C.3      1 ZINC000003982483    0.0800
29     H29     2.5366   -4.3262   -9.5451 H        1 ZINC000003982483    0.0800
30     O30     0.5686   -4.7963   -9.9671 O.3      1 ZINC000003982483   -0.5600
31     C31     1.5722   -5.1250   -7.7893 C.3      1 ZINC000003982483    0.0900
32     H32     1.2595   -4.1388   -7.4462 H        1 ZINC000003982483    0.0800
33     O33     0.5577   -6.0824   -7.4794 O.3      1 ZINC000003982483   -0.5400
34     N34    -0.1141   -3.1263   -2.4224 N.3      1 ZINC000003982483   -0.4900
35     C35    -1.4172   -3.3409   -3.0658 C.3      1 ZINC000003982483    0.0100
36     C36    -0.1084   -1.8632   -1.6374 C.3      1 ZINC000003982483    0.0400
37     H37     2.2139    2.4259   -0.4931 H        1 ZINC000003982483    0.0500
38     H38     0.6654    2.5696   -1.3592 H        1 ZINC000003982483    0.0500
39     H39     0.7047    2.6747    0.4173 H        1 ZINC000003982483    0.0500
40     H40     1.4391    0.3095    0.5409 H        1 ZINC000003982483    0.0600
41     H41    -0.1093    0.4533   -0.3251 H        1 ZINC000003982483    0.0600
42     H42     1.0957    0.3842   -2.4911 H        1 ZINC000003982483    0.0600
43     H43     2.6441    0.2405   -1.6251 H        1 ZINC000003982483    0.0700
44     H44     2.5658   -1.4728   -3.3224 H        1 ZINC000003982483    0.0800
45     H45     2.8171   -2.9261   -2.3085 H        1 ZINC000003982483    0.0800
46     H46     2.3901   -3.5050   -5.5613 H        1 ZINC000003982483    0.3900
47     H47     4.5615   -3.9358   -4.6144 H        1 ZINC000003982483    0.0600
48     H48     5.8967   -5.1117   -4.5614 H        1 ZINC000003982483    0.0600
49     H49     5.1501   -4.6826   -6.1191 H        1 ZINC000003982483    0.0700
50     H50     3.1524   -6.9680   -3.3096 H        1 ZINC000003982483    0.3800
51     H51     6.5596   -7.2719   -9.0870 H        1 ZINC000003982483    0.0800
52     H52     7.2111   -5.6406   -8.7997 H        1 ZINC000003982483    0.1100
53     H53     6.2089   -6.4300   -7.5584 H        1 ZINC000003982483    0.0800
54     H54     2.9309   -7.2546  -11.5196 H        1 ZINC000003982483    0.3900
55     H55     0.6388   -4.7656  -10.9310 H        1 ZINC000003982483    0.3900
56     H56    -0.2972   -5.8970   -7.8916 H        1 ZINC000003982483    0.3900
57     H57    -1.3691   -4.2283   -3.6968 H        1 ZINC000003982483    0.0700
58     H58    -2.1814   -3.4797   -2.3011 H        1 ZINC000003982483    0.0700
59     H59    -1.6679   -2.4738   -3.6768 H        1 ZINC000003982483    0.0300
60     H60    -0.5592   -2.0224   -0.6578 H        1 ZINC000003982483    0.0900
61     H61    -0.6374   -1.0777   -2.1771 H        1 ZINC000003982483    0.0500
@<TRIPOS>BOND
1     1     2     1
2     1     37    1
3     1     38    1
4     1     39    1
5     2     3     1
6     2     40    1
7     2     41    1
8     3     4     1
9     3     42    1
10    3     43    1
11    4     5     1
12    4     36    1
13    4     6     1
14    6     7     1
15    6     44    1
16    6     45    1
17    7     8     1
18    7     9     1
19    7     34    1
20    9     10    2
21    9     11    am
22    11    12    1
23    11    46    1
24    12    13    1
25    12    14    1
26    12    18    1
27    14    15    1
28    14    16    1
29    14    17    1
30    16    47    1
31    16    48    1
32    16    49    1
33    17    50    1
34    18    19    1
35    18    31    1
36    18    20    1
37    20    21    1
38    21    22    1
39    21    23    1
40    21    25    1
41    23    24    1
42    24    51    1
43    24    52    1
44    24    53    1
45    25    26    1
46    25    27    1
47    25    28    1
48    27    54    1
49    28    29    1
50    28    30    1
51    28    31    1
52    30    55    1
53    31    32    1
54    31    33    1
55    33    56    1
56    34    35    1
57    34    36    1
58    35    57    1
59    35    58    1
60    35    59    1
61    36    60    1
62    36    61    1
@<TRIPOS>SUBSTRUCTURE
1   ZINC000003982483 1     RESIDUE    1   A     ZIN   1
