@<TRIPOS>MOLECULE
ZINC000006733300
28   29    0    0    0
SMALL
USER_CHARGES
NO_NAME
@<TRIPOS>ATOM
1 C1       -0.0187     1.5258     0.0104 C.3    1 <0>      -0.1600
2 C2        0.0021    -0.0041     0.0020 C.3    1 <0>      -0.0600
3 H3       -1.0189    -0.3857     0.0097 H      1 <0>       0.1000
4 C4        0.7314    -0.5042    -1.2489 C.3    1 <0>      -0.0100
5 N5        0.2904    -1.8394    -1.6107 N.4    1 <0>      -0.5000
6 H6       -0.7178    -1.8396    -1.6496 H      1 <0>       0.4200
7 H7        0.6407    -2.0489    -2.5334 H      1 <0>       0.4300
8 C8        0.7113    -2.9027    -0.7161 C.3    1 <0>      -0.0100
9 C9       -0.0223    -2.8155     0.6260 C.3    1 <0>      -0.1000
10 C10       0.7359    -1.8528     1.5175 C.ar   1 <0>      -0.1100
11 C11       1.4103    -2.3279     2.6264 C.ar   1 <0>      -0.0900
12 C12       2.1011    -1.4445     3.4366 C.ar   1 <0>      -0.1000
13 C13       2.1144    -0.0942     3.1364 C.ar   1 <0>      -0.0300
14 Cl14      2.9825     1.0120     4.1544 Cl     1 <0>      -0.0500
15 C15       1.4363     0.3758     2.0242 C.ar   1 <0>      -0.1000
16 C16       0.7469    -0.5120     1.2199 C.ar   1 <0>      -0.0900
17 H17       1.0039     1.9031     0.0027 H      1 <0>       0.0700
18 H18      -0.5459     1.8868    -0.8726 H      1 <0>       0.0800
19 H19      -0.5289     1.8773     0.9072 H      1 <0>       0.0800
20 H20       0.5298     0.1757    -2.0766 H      1 <0>       0.1400
21 H21       1.8039    -0.5220    -1.0548 H      1 <0>       0.1300
22 H22       0.4966    -3.8658    -1.1792 H      1 <0>       0.1400
23 H23       1.7844    -2.8211    -0.5433 H      1 <0>       0.1300
24 H24      -1.0365    -2.4490     0.4676 H      1 <0>       0.1000
25 H25      -0.0549    -3.8003     1.0920 H      1 <0>       0.1200
26 H26       1.3979    -3.3825     2.8593 H      1 <0>       0.1400
27 H27       2.6301    -1.8093     4.3046 H      1 <0>       0.1400
28 H28       1.4446     1.4296     1.7877 H      1 <0>       0.1500
@<TRIPOS>BOND
1    1    2 1
2    1   17 1
3    1   18 1
4    1   19 1
5    2    3 1
6    2   16 1
7    2    4 1
8    4    5 1
9    4   20 1
10    4   21 1
11    5    6 1
12    5    7 1
13    5    8 1
14    8    9 1
15    8   22 1
16    8   23 1
17    9   10 1
18    9   24 1
19    9   25 1
20   10   16 ar
21   10   11 ar
22   11   12 ar
23   11   26 1
24   12   13 ar
25   12   27 1
26   13   14 1
27   13   15 ar
28   15   16 ar
29   15   28 1
