@<TRIPOS>MOLECULE
ZINC000009302201
49    49    1     0     0
SMALL
USER_CHARGES
@<TRIPOS>ATOM
1      C1      1.4892    0.3513   -0.2079 C.3      1 ZINC000009302201   -0.1100
2      C2      0.3006    0.7630   -1.0379 C.2      1 ZINC000009302201   -0.1500
3      C3     -0.7792    1.3467   -0.4411 C.2      1 ZINC000009302201   -0.0800
4      C4     -0.7827    1.5632    0.9440 C.2      1 ZINC000009302201   -0.1800
5      C5     -1.9148    2.0434    1.5628 C.2      1 ZINC000009302201    0.0000
6      C6     -3.0433    2.3721    0.8011 C.2      1 ZINC000009302201   -0.0800
7      C7     -3.8095    1.2907    0.0838 C.3      1 ZINC000009302201   -0.1200
8      C8     -3.4525    3.6831    0.7077 C.2      1 ZINC000009302201   -0.1500
9      C9     -2.6747    4.7038    1.2777 C.2      1 ZINC000009302201    0.4400
10     O10    -1.4861    4.4175    1.8113 O.co2    1 ZINC000009302201   -0.6800
11     O11    -3.1243    5.9596    1.2857 O.co2    1 ZINC000009302201   -0.7200
12     C12     0.3041    0.5459   -2.4268 C.2      1 ZINC000009302201   -0.1100
13     C13     0.1523    1.5939   -3.2788 C.2      1 ZINC000009302201   -0.1100
14     C14     0.1192    2.9183   -2.7745 C.2      1 ZINC000009302201   -0.0900
15     C15     1.1700    3.3559   -2.1011 C.2      1 ZINC000009302201   -0.0900
16     C16     2.3389    2.4219   -1.9216 C.3      1 ZINC000009302201   -0.1500
17     C17     1.2641    4.7307   -1.5059 C.3      1 ZINC000009302201   -0.0800
18     C18     0.2148    5.6497   -2.1348 C.3      1 ZINC000009302201   -0.1100
19     C19    -1.1452    4.9430   -2.0842 C.3      1 ZINC000009302201   -0.1100
20     C20    -1.1039    3.7469   -3.0401 C.3      1 ZINC000009302201   -0.0100
21     C21    -1.0811    4.2522   -4.4841 C.3      1 ZINC000009302201   -0.1400
22     C22    -2.3493    2.8841   -2.8272 C.3      1 ZINC000009302201   -0.1500
23     H23     1.3094   -0.6349    0.2200 H        1 ZINC000009302201    0.0500
24     H24     2.3781    0.3175   -0.8379 H        1 ZINC000009302201    0.0600
25     H25     1.6398    1.0736    0.5944 H        1 ZINC000009302201    0.0700
26     H26    -1.6310    1.6418   -1.0359 H        1 ZINC000009302201    0.1200
27     H27     0.1028    1.3533    1.5255 H        1 ZINC000009302201    0.1100
28     H28    -1.9328    2.1665    2.6356 H        1 ZINC000009302201    0.1200
29     H29    -4.6443    0.9645    0.7041 H        1 ZINC000009302201    0.0700
30     H30    -4.1890    1.6799   -0.8609 H        1 ZINC000009302201    0.0600
31     H31    -3.1492    0.4455   -0.1105 H        1 ZINC000009302201    0.0700
32     H32    -4.3719    3.9267    0.1959 H        1 ZINC000009302201    0.1100
33     H33     0.4274   -0.4536   -2.8169 H        1 ZINC000009302201    0.1100
34     H34     0.0568    1.4176   -4.3400 H        1 ZINC000009302201    0.1100
35     H35     3.0807    2.6151   -2.6965 H        1 ZINC000009302201    0.0500
36     H36     2.7867    2.5846   -0.9412 H        1 ZINC000009302201    0.0600
37     H37     1.9947    1.3904   -1.9971 H        1 ZINC000009302201    0.1000
38     H38     1.0947    4.6714   -0.4308 H        1 ZINC000009302201    0.0800
39     H39     2.2583    5.1374   -1.6912 H        1 ZINC000009302201    0.0600
40     H40     0.1633    6.5835   -1.5749 H        1 ZINC000009302201    0.0600
41     H41     0.4822    5.8554   -3.1712 H        1 ZINC000009302201    0.0600
42     H42    -1.3412    4.5985   -1.0688 H        1 ZINC000009302201    0.0800
43     H43    -1.9285    5.6335   -2.3970 H        1 ZINC000009302201    0.0600
44     H44    -0.2457    4.9399   -4.6152 H        1 ZINC000009302201    0.0500
45     H45    -0.9662    3.4072   -5.1630 H        1 ZINC000009302201    0.0500
46     H46    -2.0153    4.7695   -4.7028 H        1 ZINC000009302201    0.0500
47     H47    -3.2265    3.4146   -3.1978 H        1 ZINC000009302201    0.0500
48     H48    -2.2373    1.9446   -3.3683 H        1 ZINC000009302201    0.0500
49     H49    -2.4715    2.6786   -1.7637 H        1 ZINC000009302201    0.0700
@<TRIPOS>BOND
1     1     2     1
2     1     23    1
3     1     24    1
4     1     25    1
5     2     3     2
6     2     12    1
7     3     4     1
8     3     26    1
9     4     5     2
10    4     27    1
11    5     6     1
12    5     28    1
13    6     7     1
14    6     8     2
15    7     29    1
16    7     30    1
17    7     31    1
18    8     9     1
19    8     32    1
20    9     10    ar
21    9     11    ar
22    12    13    2
23    12    33    1
24    13    14    1
25    13    34    1
26    14    20    1
27    14    15    2
28    15    16    1
29    15    17    1
30    16    35    1
31    16    36    1
32    16    37    1
33    17    18    1
34    17    38    1
35    17    39    1
36    18    19    1
37    18    40    1
38    18    41    1
39    19    20    1
40    19    42    1
41    19    43    1
42    20    21    1
43    20    22    1
44    21    44    1
45    21    45    1
46    21    46    1
47    22    47    1
48    22    48    1
49    22    49    1
@<TRIPOS>SUBSTRUCTURE
1   ZINC000009302201 1     RESIDUE    1   A     ZIN   1
