@<TRIPOS>MOLECULE
ZINC000019796018
49    52    1     0     0
SMALL
USER_CHARGES
@<TRIPOS>ATOM
1      C1      0.4662    1.3777   -0.2072 C.3      1 ZINC000019796018    0.0200
2      N2      0.3789   -0.0884   -0.1734 N.3      1 ZINC000019796018   -0.5500
3      C3     -1.0214   -0.5334   -0.2020 C.3      1 ZINC000019796018    0.0600
4      C4     -1.0671   -2.0626   -0.2459 C.3      1 ZINC000019796018    0.0600
5      N5     -0.3691   -2.6048    0.9282 N.3      1 ZINC000019796018   -0.5400
6      C6     -0.4564   -4.0708    0.9620 C.3      1 ZINC000019796018    0.0600
7      C7      0.0568   -4.5813    2.3100 C.3      1 ZINC000019796018   -0.1500
8      C8     -0.0341   -6.1082    2.3452 C.3      1 ZINC000019796018    0.1100
9      N9      0.4572   -6.5970    3.6359 N.pl3    1 ZINC000019796018   -0.5600
10     C10    -0.4648   -6.7354    4.6706 C.ar     1 ZINC000019796018    0.1900
11     C11    -1.6248   -5.9689    4.6402 C.ar     1 ZINC000019796018   -0.1600
12     C12    -2.5640   -6.0831    5.6479 C.ar     1 ZINC000019796018   -0.0800
13     C13    -2.3562   -6.9609    6.6944 C.ar     1 ZINC000019796018   -0.1400
14     C14    -1.2055   -7.7267    6.7351 C.ar     1 ZINC000019796018   -0.0600
15     C15    -0.2568   -7.6168    5.7274 C.ar     1 ZINC000019796018   -0.1600
16     S16     1.2024   -8.5983    5.8060 S.3      1 ZINC000019796018    0.0300
17     C17     2.2976   -7.7934    4.6873 C.ar     1 ZINC000019796018   -0.1500
18     C18     3.6574   -8.0657    4.7530 C.ar     1 ZINC000019796018   -0.0500
19     C19     4.5351   -7.4431    3.8844 C.ar     1 ZINC000019796018   -0.1300
20     C20     4.0583   -6.5454    2.9472 C.ar     1 ZINC000019796018    0.0000
21     Cl21    5.1606   -5.7630    1.8580 Cl       1 ZINC000019796018   -0.0600
22     C22     2.7049   -6.2692    2.8760 C.ar     1 ZINC000019796018   -0.1600
23     C23     1.8132   -6.8967    3.7423 C.ar     1 ZINC000019796018    0.2100
24     C24     1.0312   -2.1598    0.9569 C.3      1 ZINC000019796018    0.0500
25     C25     1.0769   -0.6306    1.0007 C.3      1 ZINC000019796018    0.0600
26     H26     1.5129    1.6784   -0.2531 H        1 ZINC000019796018    0.0700
27     H27    -0.0585    1.7527   -1.0859 H        1 ZINC000019796018    0.0700
28     H28     0.0089    1.7897    0.6924 H        1 ZINC000019796018    0.0300
29     H29    -1.5337   -0.1797    0.6927 H        1 ZINC000019796018    0.0400
30     H30    -1.5133   -0.1294   -1.0868 H        1 ZINC000019796018    0.0800
31     H31    -2.1049   -2.3957   -0.2380 H        1 ZINC000019796018    0.0800
32     H32    -0.5785   -2.4151   -1.1543 H        1 ZINC000019796018    0.0400
33     H33    -1.4943   -4.3761    0.8291 H        1 ZINC000019796018    0.0800
34     H34     0.1512   -4.4895    0.1597 H        1 ZINC000019796018    0.0400
35     H35     1.0946   -4.2759    2.4429 H        1 ZINC000019796018    0.0700
36     H36    -0.5508   -4.1626    3.1123 H        1 ZINC000019796018    0.0800
37     H37    -1.0720   -6.4135    2.2122 H        1 ZINC000019796018    0.0900
38     H38     0.5734   -6.5269    1.5429 H        1 ZINC000019796018    0.0900
39     H39    -1.7926   -5.2806    3.8250 H        1 ZINC000019796018    0.1400
40     H40    -3.4624   -5.4844    5.6174 H        1 ZINC000019796018    0.1300
41     H41    -3.0917   -7.0487    7.4802 H        1 ZINC000019796018    0.1300
42     H42    -1.0440   -8.4123    7.5538 H        1 ZINC000019796018    0.1300
43     H43     4.0311   -8.7660    5.4853 H        1 ZINC000019796018    0.1400
44     H44     5.5922   -7.6577    3.9384 H        1 ZINC000019796018    0.1400
45     H45     2.3380   -5.5661    2.1429 H        1 ZINC000019796018    0.1400
46     H46     1.5231   -2.5638    1.8417 H        1 ZINC000019796018    0.0800
47     H47     1.5435   -2.5134    0.0622 H        1 ZINC000019796018    0.0400
48     H48     2.1147   -0.2974    0.9928 H        1 ZINC000019796018    0.0800
49     H49     0.5883   -0.2780    1.9091 H        1 ZINC000019796018    0.0400
@<TRIPOS>BOND
1     1     2     1
2     1     26    1
3     1     27    1
4     1     28    1
5     2     25    1
6     2     3     1
7     3     4     1
8     3     29    1
9     3     30    1
10    4     5     1
11    4     31    1
12    4     32    1
13    5     6     1
14    5     24    1
15    6     7     1
16    6     33    1
17    6     34    1
18    7     8     1
19    7     35    1
20    7     36    1
21    8     9     1
22    8     37    1
23    8     38    1
24    9     23    1
25    9     10    1
26    10    15    ar
27    10    11    ar
28    11    12    ar
29    11    39    1
30    12    13    ar
31    12    40    1
32    13    14    ar
33    13    41    1
34    14    15    ar
35    14    42    1
36    15    16    1
37    16    17    1
38    17    23    ar
39    17    18    ar
40    18    19    ar
41    18    43    1
42    19    20    ar
43    19    44    1
44    20    21    1
45    20    22    ar
46    22    23    ar
47    22    45    1
48    24    25    1
49    24    46    1
50    24    47    1
51    25    48    1
52    25    49    1
@<TRIPOS>SUBSTRUCTURE
1   ZINC000019796018 1     RESIDUE    1   A     ZIN   1
