@<TRIPOS>MOLECULE
ZINC000003875342
54   55    0    0    0
SMALL
USER_CHARGES
NO_NAME
@<TRIPOS>ATOM
1 C1       -0.0187     1.5258     0.0104 C.3    1 <0>      -0.1500
2 C2        0.0021    -0.0041     0.0020 C.3    1 <0>      -0.1200
3 C3        0.7421    -0.5109     1.2415 C.3    1 <0>      -0.1200
4 C4        0.7628    -2.0407     1.2331 C.3    1 <0>       0.0600
5 O5        1.4540    -2.5141     2.3908 O.3    1 <0>      -0.3800
6 C6        1.5306    -3.9383     2.4802 C.3    1 <0>       0.0600
7 C7        2.2872    -4.3295     3.7511 C.3    1 <0>       0.0600
8 O8        1.5384    -3.9186     4.8968 O.3    1 <0>      -0.3700
9 C9        2.1605    -4.2383     6.1430 C.3    1 <0>       0.0600
10 C10       1.2755    -3.7547     7.2936 C.3    1 <0>       0.0700
11 O11       0.0458    -4.4826     7.2871 O.3    1 <0>      -0.3800
12 C12      -0.8581    -4.1059     8.3279 C.3    1 <0>       0.1100
13 C13      -2.1140    -4.9324     8.2260 C.ar   1 <0>      -0.0800
14 C14      -2.2358    -5.8819     7.2287 C.ar   1 <0>      -0.0700
15 C15      -3.3898    -6.6427     7.1328 C.ar   1 <0>       0.0300
16 C16      -4.4253    -6.4483     8.0435 C.ar   1 <0>       0.0300
17 C17      -4.2962    -5.4950     9.0406 C.ar   1 <0>      -0.1000
18 C18      -3.1397    -4.7434     9.1336 C.ar   1 <0>      -0.0700
19 C19      -3.0015    -3.7075    10.2193 C.3    1 <0>      -0.0800
20 C20      -3.4128    -2.3386     9.6734 C.3    1 <0>      -0.1200
21 C21      -3.2725    -1.2869    10.7757 C.3    1 <0>      -0.1500
22 O22      -5.4403    -7.3092     7.7404 O.3    1 <0>      -0.3100
23 C23      -5.1846    -7.7453     6.3922 C.3    1 <0>       0.2100
24 O24      -3.7559    -7.6254     6.2591 O.3    1 <0>      -0.3100
25 H25       1.0039     1.9031     0.0027 H      1 <0>       0.0600
26 H26      -0.5459     1.8868    -0.8726 H      1 <0>       0.0600
27 H27      -0.5289     1.8773     0.9072 H      1 <0>       0.0600
28 H28      -1.0205    -0.3814     0.0098 H      1 <0>       0.0600
29 H29       0.5123    -0.3556    -0.8948 H      1 <0>       0.0600
30 H30       1.7647    -0.1336     1.2338 H      1 <0>       0.0700
31 H31       0.2319    -0.1594     2.1383 H      1 <0>       0.0700
32 H32      -0.2598    -2.4180     1.2409 H      1 <0>       0.0500
33 H33       1.2730    -2.3923     0.3363 H      1 <0>       0.0500
34 H34       0.5240    -4.3549     2.5138 H      1 <0>       0.0600
35 H35       2.0567    -4.3291     1.6093 H      1 <0>       0.0600
36 H36       2.4233    -5.4108     3.7747 H      1 <0>       0.0600
37 H37       3.2613    -3.8405     3.7592 H      1 <0>       0.0600
38 H38       2.2939    -5.3177     6.2161 H      1 <0>       0.0600
39 H39       3.1319    -3.7474     6.2007 H      1 <0>       0.0700
40 H40       1.7895    -3.9182     8.2408 H      1 <0>       0.0700
41 H41       1.0690    -2.6915     7.1710 H      1 <0>       0.0600
42 H42      -0.3883    -4.2767     9.2965 H      1 <0>       0.0700
43 H43      -1.1088    -3.0500     8.2268 H      1 <0>       0.0700
44 H44      -1.4312    -6.0306     6.5238 H      1 <0>       0.1500
45 H45      -5.0976    -5.3422     9.7483 H      1 <0>       0.1400
46 H46      -3.6450    -3.9724    11.0583 H      1 <0>       0.0800
47 H47      -1.9650    -3.6684    10.5545 H      1 <0>       0.0800
48 H48      -2.7694    -2.0737     8.8344 H      1 <0>       0.0600
49 H49      -4.4493    -2.3776     9.3382 H      1 <0>       0.0700
50 H50      -2.2361    -1.2478    11.1109 H      1 <0>       0.0500
51 H51      -3.5656    -0.3117    10.3868 H      1 <0>       0.0600
52 H52      -3.9160    -1.5518    11.6147 H      1 <0>       0.0600
53 H53      -5.4960    -8.7814     6.2593 H      1 <0>       0.1300
54 H54      -5.6916    -7.0973     5.6773 H      1 <0>       0.0800
@<TRIPOS>BOND
1    1    2 1
2    1   25 1
3    1   26 1
4    1   27 1
5    2    3 1
6    2   28 1
7    2   29 1
8    3    4 1
9    3   30 1
10    3   31 1
11    4    5 1
12    4   32 1
13    4   33 1
14    5    6 1
15    6    7 1
16    6   34 1
17    6   35 1
18    7    8 1
19    7   36 1
20    7   37 1
21    8    9 1
22    9   10 1
23    9   38 1
24    9   39 1
25   10   11 1
26   10   40 1
27   10   41 1
28   11   12 1
29   12   13 1
30   12   42 1
31   12   43 1
32   13   18 ar
33   13   14 ar
34   14   15 ar
35   14   44 1
36   15   24 1
37   15   16 ar
38   16   17 ar
39   16   22 1
40   17   18 ar
41   17   45 1
42   18   19 1
43   19   20 1
44   19   46 1
45   19   47 1
46   20   21 1
47   20   48 1
48   20   49 1
49   21   50 1
50   21   51 1
51   21   52 1
52   22   23 1
53   23   24 1
54   23   53 1
55   23   54 1
