@<TRIPOS>MOLECULE
ZINC000003874498
32    33    1     0     0
SMALL
USER_CHARGES
@<TRIPOS>ATOM
1      C1     -0.3096   -1.2258   -1.8971 C.3      1 ZINC000003874498   -0.1500
2      C2      0.6285   -0.3784   -1.0352 C.3      1 ZINC000003874498    0.1200
3      C3      1.0681    0.8755   -1.7938 C.3      1 ZINC000003874498   -0.1500
4      N4     -0.0209   -0.0175    0.2369 N.am     1 ZINC000003874498   -0.7100
5      C5      0.7265   -0.5567    1.2169 C.2      1 ZINC000003874498    0.7100
6      O6      0.4695   -0.4483    2.3998 O.2      1 ZINC000003874498   -0.5200
7      N7      1.7842   -1.2256    0.7439 N.am     1 ZINC000003874498   -0.5300
8      C8      2.7246   -1.8834    1.5493 C.ar     1 ZINC000003874498    0.1900
9      C9      2.6597   -1.7668    2.9309 C.ar     1 ZINC000003874498   -0.1100
10     C10     3.5875   -2.4164    3.7218 C.ar     1 ZINC000003874498   -0.0300
11     C11     4.5799   -3.1821    3.1386 C.ar     1 ZINC000003874498   -0.0100
12     N12     5.5725   -3.8770    3.9889 N.pl3    1 ZINC000003874498    0.0200
13     O13     5.5144   -3.7738    5.2011 O.2      1 ZINC000003874498   -0.1300
14     O14     6.4473   -4.5519    3.4764 O.2      1 ZINC000003874498   -0.1400
15     C15     4.6469   -3.3006    1.7623 C.ar     1 ZINC000003874498   -0.1000
16     C16     5.7296   -4.1370    1.1305 C.3      1 ZINC000003874498    0.5200
17     F17     5.5919   -4.1041   -0.2613 F        1 ZINC000003874498   -0.1700
18     F18     6.9819   -3.6257    1.4875 F        1 ZINC000003874498   -0.1600
19     F19     5.6201   -5.4576    1.5789 F        1 ZINC000003874498   -0.1600
20     C20     3.7193   -2.6573    0.9666 C.ar     1 ZINC000003874498   -0.1000
21     C21     1.8336   -1.1897   -0.6024 C.2      1 ZINC000003874498    0.5300
22     O22     2.6678   -1.7008   -1.3185 O.2      1 ZINC000003874498   -0.4300
23     H23    -0.6514   -2.0871   -1.3231 H        1 ZINC000003874498    0.0700
24     H24    -1.1683   -0.6255   -2.1976 H        1 ZINC000003874498    0.0900
25     H25     0.2226   -1.5685   -2.7844 H        1 ZINC000003874498    0.0900
26     H26     0.1906    1.4636   -2.0629 H        1 ZINC000003874498    0.0900
27     H27     1.7248    1.4718   -1.1603 H        1 ZINC000003874498    0.0700
28     H28     1.6019    0.5845   -2.6984 H        1 ZINC000003874498    0.0900
29     H29    -0.8293    0.5071    0.3465 H        1 ZINC000003874498    0.4500
30     H30     1.8849   -1.1685    3.3870 H        1 ZINC000003874498    0.1900
31     H31     3.5377   -2.3257    4.7969 H        1 ZINC000003874498    0.1800
32     H32     3.7721   -2.7502   -0.1081 H        1 ZINC000003874498    0.1900
@<TRIPOS>BOND
1     1     2     1
2     1     23    1
3     1     24    1
4     1     25    1
5     2     21    1
6     2     3     1
7     2     4     1
8     3     26    1
9     3     27    1
10    3     28    1
11    4     5     am
12    4     29    1
13    5     6     2
14    5     7     am
15    7     8     1
16    7     21    am
17    8     20    ar
18    8     9     ar
19    9     10    ar
20    9     30    1
21    10    11    ar
22    10    31    1
23    11    12    1
24    11    15    ar
25    12    13    2
26    12    14    2
27    15    16    1
28    15    20    ar
29    16    17    1
30    16    18    1
31    16    19    1
32    20    32    1
33    21    22    2
@<TRIPOS>SUBSTRUCTURE
1   ZINC000003874498 1     RESIDUE    1   A     ZIN   1
