@<TRIPOS>MOLECULE
ZINC000000000903
35   38    0    0    0
SMALL
USER_CHARGES
NO_NAME
@<TRIPOS>ATOM
1 C1       -0.0334     1.4872    -0.0157 C.3    1 <0>      -0.0700
2 C2       -0.0066    -0.0195    -0.0135 C.2    1 <0>       0.1900
3 N3        0.0034    -0.7998    -1.0628 N.2    1 <0>      -0.2800
4 N4        0.0123    -2.0332    -0.6924 N.2    1 <0>      -0.2600
5 C5       -0.0034    -2.0994     0.6076 C.2    1 <0>       0.1600
6 C6       -0.0655    -3.3400     1.4626 C.3    1 <0>       0.1200
7 N7       -1.2852    -3.2635     2.2741 N.2    1 <0>      -0.4800
8 C8       -1.4815    -2.3132     3.1199 C.2    1 <0>       0.2600
9 C9       -2.7444    -2.3799     3.8915 C.ar   1 <0>      -0.0800
10 C10      -3.3043    -1.2169     4.4199 C.ar   1 <0>      -0.0900
11 C11      -4.4807    -1.2855     5.1377 C.ar   1 <0>      -0.1200
12 C12      -5.1048    -2.5046     5.3336 C.ar   1 <0>      -0.1000
13 C13      -4.5541    -3.6617     4.8122 C.ar   1 <0>      -0.1300
14 C14      -3.3813    -3.6052     4.0874 C.ar   1 <0>      -0.0700
15 C15      -0.6071    -1.1725     3.4135 C.ar   1 <0>      -0.0900
16 C16      -0.4441    -0.7933     4.7542 C.ar   1 <0>      -0.0600
17 C17       0.3416     0.2882     5.0850 C.ar   1 <0>      -0.0300
18 Cl18      0.5363     0.7393     6.7500 Cl     1 <0>      -0.0400
19 C19       0.9775     1.0171     4.0931 C.ar   1 <0>      -0.0700
20 C20       0.8365     0.6506     2.7706 C.ar   1 <0>      -0.1100
21 C21       0.0606    -0.4496     2.4223 C.ar   1 <0>       0.1500
22 N22       0.0179    -0.8271     1.0796 N.pl3  1 <0>      -0.4300
23 H23       0.9876     1.8688    -0.0257 H      1 <0>       0.0900
24 H24      -0.5618     1.8399    -0.9014 H      1 <0>       0.1000
25 H25      -0.5454     1.8428     0.8785 H      1 <0>       0.0800
26 H26      -0.0996    -4.2250     0.8272 H      1 <0>       0.1400
27 H27       0.8084    -3.3846     2.1126 H      1 <0>       0.0900
28 H28      -2.8178    -0.2647     4.2680 H      1 <0>       0.1200
29 H29      -4.9151    -0.3857     5.5477 H      1 <0>       0.1300
30 H30      -6.0255    -2.5532     5.8961 H      1 <0>       0.1300
31 H31      -5.0455    -4.6106     4.9691 H      1 <0>       0.1300
32 H32      -2.9525    -4.5091     3.6807 H      1 <0>       0.1400
33 H33      -0.9386    -1.3544     5.5334 H      1 <0>       0.1500
34 H34       1.5830     1.8722     4.3551 H      1 <0>       0.1500
35 H35       1.3327     1.2221     2.0001 H      1 <0>       0.1500
@<TRIPOS>BOND
1    1    2 1
2    1   23 1
3    1   24 1
4    1   25 1
5    2   22 1
6    2    3 2
7    3    4 1
8    4    5 2
9    5   22 1
10    5    6 1
11    6    7 1
12    6   26 1
13    6   27 1
14    7    8 2
15    8    9 1
16    8   15 1
17    9   14 ar
18    9   10 ar
19   10   11 ar
20   10   28 1
21   11   12 ar
22   11   29 1
23   12   13 ar
24   12   30 1
25   13   14 ar
26   13   31 1
27   14   32 1
28   15   21 ar
29   15   16 ar
30   16   17 ar
31   16   33 1
32   17   18 1
33   17   19 ar
34   19   20 ar
35   19   34 1
36   20   21 ar
37   20   35 1
38   21   22 1
