@<TRIPOS>MOLECULE
ZINC000100019007
23    23    1     0     0
SMALL
USER_CHARGES
@<TRIPOS>ATOM
1      C1     -0.0178    1.4608    0.0101 C.3      1 ZINC000100019007    0.0600
2      N2      0.0021   -0.0041    0.0020 N.pl3    1 ZINC000100019007   -0.4900
3      C3      0.0241   -0.7433    1.2666 C.3      1 ZINC000100019007    0.1200
4      N4     -0.0000   -0.6980   -1.2151 N.2      1 ZINC000100019007    0.0800
5      N5     -0.0194   -0.0471   -2.3286 N.2      1 ZINC000100019007   -0.2900
6      C6     -0.0215   -0.7242   -3.5162 C.2      1 ZINC000100019007    0.2800
7      C7     -0.0356   -0.1598   -4.7889 C.2      1 ZINC000100019007   -0.0600
8      C8     -0.0514    1.2640   -5.1209 C.2      1 ZINC000100019007    0.6000
9      N9     -0.0640    1.6550   -6.4106 N.am     1 ZINC000100019007   -0.8600
10     O10    -0.0532    2.0963   -4.2323 O.2      1 ZINC000100019007   -0.5000
11     N11    -0.0311   -1.2225   -5.6752 N.pl3    1 ZINC000100019007   -0.5500
12     C12    -0.0151   -2.3527   -4.9451 C.2      1 ZINC000100019007    0.2400
13     N13    -0.0043   -2.0580   -3.6732 N.2      1 ZINC000100019007   -0.5100
14     H14     1.0048    1.8381    0.0023 H        1 ZINC000100019007    0.0600
15     H15    -0.5450    1.8219   -0.8730 H        1 ZINC000100019007    0.0800
16     H16    -0.5280    1.8123    0.9069 H        1 ZINC000100019007    0.0700
17     H17     0.0224   -0.0395    2.0990 H        1 ZINC000100019007    0.0900
18     H18    -0.8567   -1.3823    1.3294 H        1 ZINC000100019007    0.0600
19     H19     0.9230   -1.3581    1.3125 H        1 ZINC000100019007    0.0600
20     H20    -0.0625    0.9919   -7.1186 H        1 ZINC000100019007    0.3900
21     H21    -0.0745    2.5996   -6.6309 H        1 ZINC000100019007    0.4100
22     H22    -0.0385   -1.1636   -6.6433 H        1 ZINC000100019007    0.4300
23     H23    -0.0085   -3.3537   -5.3505 H        1 ZINC000100019007    0.2200
@<TRIPOS>BOND
1     1     2     1
2     1     14    1
3     1     15    1
4     1     16    1
5     2     3     1
6     2     4     1
7     3     17    1
8     3     18    1
9     3     19    1
10    4     5     2
11    5     6     1
12    6     13    1
13    6     7     2
14    7     8     1
15    7     11    1
16    8     9     am
17    8     10    2
18    9     20    1
19    9     21    1
20    11    12    1
21    11    22    1
22    12    13    2
23    12    23    1
@<TRIPOS>SUBSTRUCTURE
1   ZINC000100019007 1     RESIDUE    1   A     ZIN   1
