@<TRIPOS>MOLECULE
ZINC000003872931
59    63    1     0     0
SMALL
USER_CHARGES
@<TRIPOS>ATOM
1      C1     -0.0187    1.5258    0.0104 C.3      1 ZINC000003872931   -0.1500
2      C2      0.0021   -0.0041    0.0020 C.3      1 ZINC000003872931   -0.1300
3      C3      0.7182   -0.4975   -1.2568 C.3      1 ZINC000003872931   -0.1000
4      C4      0.7390   -2.0273   -1.2652 C.3      1 ZINC000003872931   -0.0700
5      C5      1.4443   -2.5133   -2.5051 C.2      1 ZINC000003872931    0.3600
6      N6      1.9446   -1.7244   -3.3941 N.2      1 ZINC000003872931   -0.5000
7      C7      2.5387   -2.5645   -4.4341 C.3      1 ZINC000003872931    0.0400
8      C8      1.8838   -2.3055   -5.7977 C.3      1 ZINC000003872931   -0.0900
9      C9      2.8711   -1.3460   -6.5115 C.3      1 ZINC000003872931   -0.1200
10     C10     4.2550   -1.8748   -6.0570 C.3      1 ZINC000003872931   -0.1200
11     C11     4.0372   -2.2917   -4.5855 C.3      1 ZINC000003872931   -0.0900
12     C12     2.2851   -3.9781   -3.9734 C.2      1 ZINC000003872931    0.5100
13     O13     2.6050   -5.0082   -4.5272 O.2      1 ZINC000003872931   -0.4900
14     N14     1.6252   -3.8381   -2.8007 N.am     1 ZINC000003872931   -0.5700
15     C15     1.1611   -4.9497   -1.9669 C.3      1 ZINC000003872931    0.1600
16     C16     2.2406   -5.3260   -0.9851 C.ar     1 ZINC000003872931   -0.1200
17     C17     3.1857   -6.2752   -1.3306 C.ar     1 ZINC000003872931   -0.1200
18     C18     4.1767   -6.6238   -0.4356 C.ar     1 ZINC000003872931   -0.1000
19     C19     4.2243   -6.0171    0.8185 C.ar     1 ZINC000003872931   -0.0400
20     C20     5.2866   -6.3869    1.7842 C.ar     1 ZINC000003872931   -0.0400
21     C21     5.5417   -7.7262    2.0651 C.ar     1 ZINC000003872931   -0.1100
22     C22     6.5322   -8.0662    2.9647 C.ar     1 ZINC000003872931   -0.1400
23     C23     7.2761   -7.0815    3.5915 C.ar     1 ZINC000003872931   -0.1200
24     C24     7.0357   -5.7484    3.3240 C.ar     1 ZINC000003872931   -0.1000
25     C25     6.0447   -5.3886    2.4160 C.ar     1 ZINC000003872931    0.0500
26     C26     5.7834   -3.9577    2.1253 C.2      1 ZINC000003872931    0.0700
27     N27     4.8706   -3.4712    1.2908 N.2      1 ZINC000003872931   -0.3500
28     N28     4.9623   -2.1855    1.3210 N.pl3    1 ZINC000003872931   -0.1900
29     N29     5.8958   -1.8485    2.1409 N.2      1 ZINC000003872931   -0.1900
30     N30     6.4127   -2.9129    2.6530 N.2      1 ZINC000003872931   -0.3700
31     C31     3.2695   -5.0608    1.1610 C.ar     1 ZINC000003872931    0.0100
32     C32     2.2860   -4.7168    0.2560 C.ar     1 ZINC000003872931   -0.1200
33     H33     1.0039    1.9031    0.0027 H        1 ZINC000003872931    0.0600
34     H34    -0.5459    1.8868   -0.8726 H        1 ZINC000003872931    0.0500
35     H35    -0.5289    1.8773    0.9072 H        1 ZINC000003872931    0.0500
36     H36     0.5293   -0.3651    0.8851 H        1 ZINC000003872931    0.0700
37     H37    -1.0205   -0.3814    0.0098 H        1 ZINC000003872931    0.0600
38     H38     0.1910   -0.1364   -2.1398 H        1 ZINC000003872931    0.0700
39     H39     1.7408   -0.1202   -1.2645 H        1 ZINC000003872931    0.0800
40     H40     1.2661   -2.3884   -0.3821 H        1 ZINC000003872931    0.1000
41     H41    -0.2836   -2.4046   -1.2575 H        1 ZINC000003872931    0.0900
42     H42     1.7838   -3.2360   -6.3566 H        1 ZINC000003872931    0.0700
43     H43     0.9120   -1.8286   -5.6706 H        1 ZINC000003872931    0.0800
44     H44     2.7663   -1.4197   -7.5940 H        1 ZINC000003872931    0.0700
45     H45     2.7214   -0.3194   -6.1772 H        1 ZINC000003872931    0.0700
46     H46     4.5506   -2.7352   -6.6575 H        1 ZINC000003872931    0.0700
47     H47     5.0050   -1.0867   -6.1232 H        1 ZINC000003872931    0.0700
48     H48     4.3401   -1.4844   -3.9188 H        1 ZINC000003872931    0.0900
49     H49     4.6064   -3.1945   -4.3639 H        1 ZINC000003872931    0.0700
50     H50     0.2655   -4.6475   -1.4241 H        1 ZINC000003872931    0.0900
51     H51     0.9305   -5.8069   -2.5996 H        1 ZINC000003872931    0.0900
52     H52     3.1478   -6.7447   -2.3025 H        1 ZINC000003872931    0.1100
53     H53     4.9136   -7.3656   -0.7061 H        1 ZINC000003872931    0.1100
54     H54     4.9645   -8.4992    1.5796 H        1 ZINC000003872931    0.1200
55     H55     6.7275   -9.1061    3.1808 H        1 ZINC000003872931    0.1200
56     H56     8.0485   -7.3575    4.2940 H        1 ZINC000003872931    0.1200
57     H57     7.6195   -4.9850    3.8168 H        1 ZINC000003872931    0.1300
58     H58     3.3013   -4.5877    2.1313 H        1 ZINC000003872931    0.1200
59     H59     1.5460   -3.9758    0.5200 H        1 ZINC000003872931    0.1100
@<TRIPOS>BOND
1     1     2     1
2     1     33    1
3     1     34    1
4     1     35    1
5     2     3     1
6     2     36    1
7     2     37    1
8     3     4     1
9     3     38    1
10    3     39    1
11    4     5     1
12    4     40    1
13    4     41    1
14    5     14    1
15    5     6     2
16    6     7     1
17    7     11    1
18    7     8     1
19    7     12    1
20    8     9     1
21    8     42    1
22    8     43    1
23    9     10    1
24    9     44    1
25    9     45    1
26    10    11    1
27    10    46    1
28    10    47    1
29    11    48    1
30    11    49    1
31    12    13    2
32    12    14    am
33    14    15    1
34    15    16    1
35    15    50    1
36    15    51    1
37    16    32    ar
38    16    17    ar
39    17    18    ar
40    17    52    1
41    18    19    ar
42    18    53    1
43    19    20    1
44    19    31    ar
45    20    25    ar
46    20    21    ar
47    21    22    ar
48    21    54    1
49    22    23    ar
50    22    55    1
51    23    24    ar
52    23    56    1
53    24    25    ar
54    24    57    1
55    25    26    1
56    26    30    1
57    26    27    2
58    27    28    1
59    28    29    1
60    29    30    2
61    31    32    ar
62    31    58    1
63    32    59    1
@<TRIPOS>SUBSTRUCTURE
1   ZINC000003872931 1     RESIDUE    1   A     ZIN   1
