@<TRIPOS>MOLECULE
ZINC000000968264
43    46    1     0     0
SMALL
USER_CHARGES
@<TRIPOS>ATOM
1      C1     -0.0178    1.4648    0.0101 C.3      1 ZINC000000968264    0.0200
2      N2      0.0021   -0.0041    0.0020 N.3      1 ZINC000000968264   -0.5500
3      C3     -1.3578   -0.5482   -0.0999 C.3      1 ZINC000000968264    0.0600
4      C4     -1.2844   -2.0589   -0.3500 C.3      1 ZINC000000968264   -0.0800
5      C5     -0.4229   -2.6770    0.7312 C.2      1 ZINC000000968264   -0.0800
6      C6     -0.8349   -3.7564    1.4133 C.2      1 ZINC000000968264   -0.0700
7      C7     -2.1462   -4.3828    1.1255 C.ar     1 ZINC000000968264   -0.0200
8      C8     -2.4231   -4.8622   -0.1508 C.ar     1 ZINC000000968264   -0.1100
9      C9     -3.6274   -5.4873   -0.4068 C.ar     1 ZINC000000968264   -0.1200
10     C10    -4.5616   -5.6439    0.6041 C.ar     1 ZINC000000968264   -0.1200
11     C11    -4.3127   -5.1592    1.8696 C.ar     1 ZINC000000968264   -0.1100
12     C12    -3.1079   -4.5003    2.1451 C.ar     1 ZINC000000968264   -0.0500
13     C13    -2.8921   -3.9119    3.4636 C.2      1 ZINC000000968264   -0.1000
14     C14    -1.7767   -3.8971    4.1624 C.2      1 ZINC000000968264   -0.1000
15     C15    -0.4854   -4.4656    3.7880 C.ar     1 ZINC000000968264   -0.0500
16     C16     0.2866   -5.1269    4.7514 C.ar     1 ZINC000000968264   -0.1100
17     C17     1.5271   -5.6263    4.4196 C.ar     1 ZINC000000968264   -0.1200
18     C18     2.0263   -5.4775    3.1359 C.ar     1 ZINC000000968264   -0.1200
19     C19     1.2745   -4.8444    2.1658 C.ar     1 ZINC000000968264   -0.1100
20     C20     0.0122   -4.3570    2.4702 C.ar     1 ZINC000000968264   -0.0200
21     C21     0.9193   -2.0365    1.0164 C.3      1 ZINC000000968264   -0.0800
22     C22     0.7058   -0.5272    1.1797 C.3      1 ZINC000000968264    0.0600
23     H23     1.0047    1.8421    0.0024 H        1 ZINC000000968264    0.0700
24     H24    -0.5450    1.8259   -0.8730 H        1 ZINC000000968264    0.0700
25     H25    -0.5280    1.8163    0.9069 H        1 ZINC000000968264    0.0200
26     H26    -1.8956   -0.3592    0.8292 H        1 ZINC000000968264    0.0300
27     H27    -1.8806   -0.0678   -0.9270 H        1 ZINC000000968264    0.0800
28     H28    -2.2861   -2.4870   -0.3115 H        1 ZINC000000968264    0.0800
29     H29    -0.8403   -2.2486   -1.3272 H        1 ZINC000000968264    0.0800
30     H30    -1.6964   -4.7452   -0.9412 H        1 ZINC000000968264    0.1300
31     H31    -3.8421   -5.8552   -1.3992 H        1 ZINC000000968264    0.1300
32     H32    -5.4932   -6.1500    0.3984 H        1 ZINC000000968264    0.1200
33     H33    -5.0478   -5.2875    2.6504 H        1 ZINC000000968264    0.1300
34     H34    -3.7467   -3.4334    3.9185 H        1 ZINC000000968264    0.1200
35     H35    -1.8221   -3.4075    5.1239 H        1 ZINC000000968264    0.1200
36     H36    -0.0910   -5.2454    5.7563 H        1 ZINC000000968264    0.1300
37     H37     2.1154   -6.1384    5.1666 H        1 ZINC000000968264    0.1200
38     H38     3.0074   -5.8579    2.8929 H        1 ZINC000000968264    0.1300
39     H39     1.6684   -4.7288    1.1669 H        1 ZINC000000968264    0.1200
40     H40     1.3364   -2.4502    1.9346 H        1 ZINC000000968264    0.0800
41     H41     1.5999   -2.2238    0.1859 H        1 ZINC000000968264    0.0800
42     H42     1.6719   -0.0317    1.2758 H        1 ZINC000000968264    0.0800
43     H43     0.1100   -0.3388    2.0727 H        1 ZINC000000968264    0.0300
@<TRIPOS>BOND
1     1     2     1
2     1     23    1
3     1     24    1
4     1     25    1
5     2     22    1
6     2     3     1
7     3     4     1
8     3     26    1
9     3     27    1
10    4     5     1
11    4     28    1
12    4     29    1
13    5     6     2
14    5     21    1
15    6     20    1
16    6     7     1
17    7     12    ar
18    7     8     ar
19    8     9     ar
20    8     30    1
21    9     10    ar
22    9     31    1
23    10    11    ar
24    10    32    1
25    11    12    ar
26    11    33    1
27    12    13    1
28    13    14    2
29    13    34    1
30    14    15    1
31    14    35    1
32    15    20    ar
33    15    16    ar
34    16    17    ar
35    16    36    1
36    17    18    ar
37    17    37    1
38    18    19    ar
39    18    38    1
40    19    20    ar
41    19    39    1
42    21    22    1
43    21    40    1
44    21    41    1
45    22    42    1
46    22    43    1
@<TRIPOS>SUBSTRUCTURE
1   ZINC000000968264 1     RESIDUE    1   A     ZIN   1
