@<TRIPOS>MOLECULE
ZINC000000968233
24   25    0    0    0
SMALL
USER_CHARGES
NO_NAME
@<TRIPOS>ATOM
1 O1       -0.1403     0.0342    -0.2670 O.2    1 <0>      -0.4500
2 C2       -0.0144     1.2113     0.0087 C.2    1 <0>       0.4400
3 C3        1.3079     1.8600    -0.1078 C.ar   1 <0>      -0.1600
4 C4        1.4942     3.1625     0.3609 C.ar   1 <0>      -0.0800
5 C5        2.7313     3.7620     0.2488 C.ar   1 <0>      -0.1300
6 C6        3.7865     3.0762    -0.3268 C.ar   1 <0>      -0.0900
7 C7        3.6089     1.7856    -0.7938 C.ar   1 <0>      -0.1300
8 C8        2.3790     1.1715    -0.6821 C.ar   1 <0>      -0.0600
9 C9       -1.1849     1.9949     0.4545 C.ar   1 <0>      -0.1600
10 C10      -1.2958     3.3453     0.1150 C.ar   1 <0>      -0.0900
11 C11      -2.3912     4.0708     0.5347 C.ar   1 <0>      -0.1300
12 C12      -3.3788     3.4639     1.2906 C.ar   1 <0>      -0.0900
13 C13      -3.2752     2.1266     1.6310 C.ar   1 <0>      -0.1300
14 C14      -2.1886     1.3873     1.2126 C.ar   1 <0>      -0.0700
15 H15       0.6714     3.6991     0.8097 H      1 <0>       0.1400
16 H16       2.8767     4.7690     0.6108 H      1 <0>       0.1300
17 H17       4.7530     3.5505    -0.4123 H      1 <0>       0.1300
18 H18       4.4366     1.2564    -1.2425 H      1 <0>       0.1300
19 H19       2.2418     0.1642    -1.0469 H      1 <0>       0.1300
20 H20      -0.5254     3.8203    -0.4743 H      1 <0>       0.1400
21 H21      -2.4782     5.1150     0.2729 H      1 <0>       0.1300
22 H22      -4.2342     4.0368     1.6169 H      1 <0>       0.1300
23 H23      -4.0493     1.6595     2.2218 H      1 <0>       0.1300
24 H24      -2.1090     0.3437     1.4788 H      1 <0>       0.1300
@<TRIPOS>BOND
1    1    2 2
2    2    3 1
3    2    9 1
4    3    8 ar
5    3    4 ar
6    4    5 ar
7    4   15 1
8    5    6 ar
9    5   16 1
10    6    7 ar
11    6   17 1
12    7    8 ar
13    7   18 1
14    8   19 1
15    9   14 ar
16    9   10 ar
17   10   11 ar
18   10   20 1
19   11   12 ar
20   11   21 1
21   12   13 ar
22   12   22 1
23   13   14 ar
24   13   23 1
25   14   24 1
