@<TRIPOS>MOLECULE
ZINC000030690433
59    62    1     0     0
SMALL
USER_CHARGES
@<TRIPOS>ATOM
1      C1      0.4641    0.6616    1.1106 C.3      1 ZINC000030690433    0.0800
2      N2      0.7454   -0.7694    0.9712 N.am     1 ZINC000030690433   -1.0000
3      C3      2.0988   -1.2208    0.6383 C.3      1 ZINC000030690433    0.0800
4      S4     -0.4664   -1.8766    1.1900 S.o2     1 ZINC000030690433    2.6900
5      O5      0.1669   -3.1391    1.3457 O.2      1 ZINC000030690433   -0.9500
6      O6     -1.3454   -1.3231    2.1597 O.2      1 ZINC000030690433   -0.9500
7      C7     -1.3761   -1.9588   -0.3168 C.ar     1 ZINC000030690433   -0.6800
8      C8     -2.3474   -1.0108   -0.5905 C.ar     1 ZINC000030690433    0.0000
9      C9     -3.0619   -1.0679   -1.7681 C.ar     1 ZINC000030690433   -0.1100
10     C10    -2.8145   -2.0795   -2.6955 C.ar     1 ZINC000030690433   -0.0500
11     S11    -3.7425   -2.1100   -4.1869 S.3      1 ZINC000030690433    0.0600
12     C12    -3.5567   -3.7459   -4.7999 C.ar     1 ZINC000030690433   -0.1200
13     C13    -4.4669   -4.2194   -5.7442 C.ar     1 ZINC000030690433   -0.0900
14     C14    -4.3486   -5.4972   -6.2481 C.ar     1 ZINC000030690433   -0.1100
15     C15    -3.3231   -6.3236   -5.8210 C.ar     1 ZINC000030690433   -0.1100
16     C16    -2.4149   -5.8722   -4.8876 C.ar     1 ZINC000030690433   -0.1000
17     C17    -2.5247   -4.5797   -4.3673 C.ar     1 ZINC000030690433   -0.0300
18     C18    -1.5404   -4.1286   -3.3653 C.2      1 ZINC000030690433   -0.0700
19     C19    -0.3414   -4.7283   -3.3136 C.2      1 ZINC000030690433   -0.1100
20     C20     0.8404   -4.0006   -2.7263 C.3      1 ZINC000030690433   -0.1100
21     C21     2.0226   -4.0835   -3.6940 C.3      1 ZINC000030690433    0.0600
22     N22     3.2086   -3.4809   -3.0709 N.3      1 ZINC000030690433   -0.5400
23     C23     2.9212   -2.1190   -2.5994 C.3      1 ZINC000030690433    0.0500
24     C24     4.1545   -1.5576   -1.8878 C.3      1 ZINC000030690433    0.0500
25     N25     5.2954   -1.5614   -2.8141 N.3      1 ZINC000030690433   -0.5500
26     C26     6.4814   -0.9588   -2.1910 C.3      1 ZINC000030690433    0.0200
27     C27     5.5827   -2.9233   -3.2855 C.3      1 ZINC000030690433    0.0600
28     C28     4.3495   -3.4848   -3.9971 C.3      1 ZINC000030690433    0.0600
29     C29    -1.8373   -3.0366   -2.4185 C.ar     1 ZINC000030690433   -0.0600
30     C30    -1.1158   -2.9634   -1.2239 C.ar     1 ZINC000030690433    0.0000
31     H31     1.3766    1.2304    0.9319 H        1 ZINC000030690433    0.0800
32     H32    -0.2948    0.9550    0.3852 H        1 ZINC000030690433    0.0600
33     H33     0.1011    0.8641    2.1182 H        1 ZINC000030690433    0.0700
34     H34     2.6944   -1.2856    1.5489 H        1 ZINC000030690433    0.0600
35     H35     2.0487   -2.2020    0.1663 H        1 ZINC000030690433    0.0800
36     H36     2.5602   -0.5107   -0.0479 H        1 ZINC000030690433    0.0700
37     H37    -2.5464   -0.2236    0.1216 H        1 ZINC000030690433    0.1500
38     H38    -3.8182   -0.3248   -1.9735 H        1 ZINC000030690433    0.1400
39     H39    -5.2698   -3.5813   -6.0827 H        1 ZINC000030690433    0.1300
40     H40    -5.0589   -5.8552   -6.9787 H        1 ZINC000030690433    0.1300
41     H41    -3.2344   -7.3233   -6.2200 H        1 ZINC000030690433    0.1300
42     H42    -1.6164   -6.5197   -4.5565 H        1 ZINC000030690433    0.1300
43     H43    -0.2232   -5.7326   -3.6929 H        1 ZINC000030690433    0.1300
44     H44     0.5783   -2.9555   -2.5616 H        1 ZINC000030690433    0.0800
45     H45     1.1150   -4.4604   -1.7770 H        1 ZINC000030690433    0.0900
46     H46     2.2269   -5.1280   -3.9294 H        1 ZINC000030690433    0.0800
47     H47     1.7805   -3.5452   -4.6104 H        1 ZINC000030690433    0.0400
48     H48     2.6720   -1.4847   -3.4501 H        1 ZINC000030690433    0.0400
49     H49     2.0810   -2.1441   -1.9056 H        1 ZINC000030690433    0.0800
50     H50     3.9534   -0.5368   -1.5627 H        1 ZINC000030690433    0.0800
51     H51     4.3875   -2.1763   -1.0213 H        1 ZINC000030690433    0.0500
52     H52     6.7521   -1.5265   -1.3007 H        1 ZINC000030690433    0.0300
53     H53     7.3108   -0.9744   -2.8980 H        1 ZINC000030690433    0.0700
54     H54     6.2612    0.0716   -1.9119 H        1 ZINC000030690433    0.0700
55     H55     6.4230   -2.8982   -3.9794 H        1 ZINC000030690433    0.0800
56     H56     5.8320   -3.5576   -2.4349 H        1 ZINC000030690433    0.0400
57     H57     4.5505   -4.5055   -4.3223 H        1 ZINC000030690433    0.0800
58     H58     4.1165   -2.8660   -4.8637 H        1 ZINC000030690433    0.0400
59     H59    -0.3544   -3.6986   -1.0091 H        1 ZINC000030690433    0.1600
@<TRIPOS>BOND
1     1     2     1
2     1     31    1
3     1     32    1
4     1     33    1
5     2     3     1
6     2     4     am
7     3     34    1
8     3     35    1
9     3     36    1
10    4     5     2
11    4     6     2
12    4     7     1
13    7     30    ar
14    7     8     ar
15    8     9     ar
16    8     37    1
17    9     10    ar
18    9     38    1
19    10    29    ar
20    10    11    1
21    11    12    1
22    12    17    ar
23    12    13    ar
24    13    14    ar
25    13    39    1
26    14    15    ar
27    14    40    1
28    15    16    ar
29    15    41    1
30    16    17    ar
31    16    42    1
32    17    18    1
33    18    19    2
34    18    29    1
35    19    20    1
36    19    43    1
37    20    21    1
38    20    44    1
39    20    45    1
40    21    22    1
41    21    46    1
42    21    47    1
43    22    28    1
44    22    23    1
45    23    24    1
46    23    48    1
47    23    49    1
48    24    25    1
49    24    50    1
50    24    51    1
51    25    26    1
52    25    27    1
53    26    52    1
54    26    53    1
55    26    54    1
56    27    28    1
57    27    55    1
58    27    56    1
59    28    57    1
60    28    58    1
61    29    30    ar
62    30    59    1
@<TRIPOS>SUBSTRUCTURE
1   ZINC000030690433 1     RESIDUE    1   A     ZIN   1
