@<TRIPOS>MOLECULE
ZINC000100004345
68    71    1     0     0
SMALL
USER_CHARGES
@<TRIPOS>ATOM
1      C1     -4.5115    2.1000    1.0024 C.3      1 ZINC000100004345   -0.1600
2      C2     -4.4012    0.6436    1.4582 C.3      1 ZINC000100004345   -0.1200
3      C3     -4.1838   -0.2569    0.2405 C.3      1 ZINC000100004345   -0.1500
4      C4     -4.0735   -1.7132    0.6964 C.3      1 ZINC000100004345   -0.0200
5      N5     -3.8648   -2.5778   -0.4728 N.4      1 ZINC000100004345   -0.3800
6      H6     -4.6024   -2.4208   -1.1431 H        1 ZINC000100004345    0.4300
7      C7     -2.5686   -2.2641   -1.0887 C.3      1 ZINC000100004345   -0.0200
8      C8     -2.4216   -3.0472   -2.3948 C.3      1 ZINC000100004345   -0.1500
9      C9     -1.0377   -2.7865   -2.9928 C.3      1 ZINC000100004345   -0.1200
10     C10    -0.8908   -3.5697   -4.2990 C.3      1 ZINC000100004345   -0.1600
11     C11    -3.8784   -3.9846   -0.0501 C.3      1 ZINC000100004345   -0.0500
12     C12    -5.2694   -4.3460    0.4746 C.3      1 ZINC000100004345    0.1300
13     H13    -5.5027   -3.7279    1.3416 H        1 ZINC000100004345    0.1300
14     O14    -6.2394   -4.1159   -0.5493 O.3      1 ZINC000100004345   -0.5400
15     C15    -5.2942   -5.7993    0.8725 C.ar     1 ZINC000100004345   -0.1000
16     C16    -5.7388   -6.7515   -0.0209 C.ar     1 ZINC000100004345   -0.1000
17     C17    -5.7661   -8.0917    0.3340 C.ar     1 ZINC000100004345   -0.0200
18     Cl18   -6.3284   -9.2753   -0.8047 Cl       1 ZINC000100004345   -0.0400
19     C19    -5.3478   -8.4897    1.5884 C.ar     1 ZINC000100004345   -0.0800
20     C20    -4.8958   -7.5405    2.5029 C.ar     1 ZINC000100004345   -0.0300
21     C21    -4.8624   -6.1820    2.1420 C.ar     1 ZINC000100004345   -0.0400
22     C22    -4.3466   -5.4015    3.2865 C.ar     1 ZINC000100004345   -0.0600
23     C23    -4.1181   -4.0368    3.4558 C.ar     1 ZINC000100004345   -0.1000
24     C24    -3.6205   -3.5638    4.6526 C.ar     1 ZINC000100004345   -0.1000
25     C25    -3.3441   -4.4362    5.6939 C.ar     1 ZINC000100004345   -0.0200
26     Cl26   -2.7180   -3.8219    7.1920 Cl       1 ZINC000100004345   -0.0400
27     C27    -3.5648   -5.7917    5.5456 C.ar     1 ZINC000100004345   -0.0800
28     C28    -4.0662   -6.2857    4.3437 C.ar     1 ZINC000100004345   -0.0300
29     C29    -4.3949   -7.6530    3.8888 C.2      1 ZINC000100004345   -0.0700
30     C30    -4.2638   -8.7972    4.6097 C.2      1 ZINC000100004345    0.0000
31     C31    -4.3514  -10.1019    3.9395 C.ar     1 ZINC000100004345   -0.0900
32     C32    -3.6960  -10.3119    2.7208 C.ar     1 ZINC000100004345   -0.0800
33     C33    -3.7825  -11.5386    2.0985 C.ar     1 ZINC000100004345   -0.1200
34     C34    -4.5158  -12.5624    2.6763 C.ar     1 ZINC000100004345   -0.0200
35     Cl35   -4.6184  -14.1042    1.8851 Cl       1 ZINC000100004345   -0.0500
36     C36    -5.1673  -12.3620    3.8826 C.ar     1 ZINC000100004345   -0.1100
37     C37    -5.0858  -11.1426    4.5196 C.ar     1 ZINC000100004345   -0.0800
38     H38    -4.6664    2.7415    1.8699 H        1 ZINC000100004345    0.0700
39     H39    -3.5928    2.3921    0.4938 H        1 ZINC000100004345    0.0600
40     H40    -5.3541    2.2038    0.3187 H        1 ZINC000100004345    0.0600
41     H41    -3.5586    0.5398    2.1419 H        1 ZINC000100004345    0.0700
42     H42    -5.3199    0.3515    1.9668 H        1 ZINC000100004345    0.0700
43     H43    -5.0264   -0.1530   -0.4432 H        1 ZINC000100004345    0.0900
44     H44    -3.2651    0.0353   -0.2680 H        1 ZINC000100004345    0.0900
45     H45    -3.2309   -1.8171    1.3801 H        1 ZINC000100004345    0.1300
46     H46    -4.9922   -2.0053    1.2050 H        1 ZINC000100004345    0.1300
47     H47    -2.5147   -1.1956   -1.2976 H        1 ZINC000100004345    0.1400
48     H48    -1.7653   -2.5418   -0.4062 H        1 ZINC000100004345    0.1300
49     H49    -2.5361   -4.1125   -2.1945 H        1 ZINC000100004345    0.0800
50     H50    -3.1884   -2.7255   -3.0995 H        1 ZINC000100004345    0.0900
51     H51    -0.9232   -1.7212   -3.1931 H        1 ZINC000100004345    0.0700
52     H52    -0.2709   -3.1082   -2.2881 H        1 ZINC000100004345    0.0700
53     H53    -1.0053   -4.6350   -4.0987 H        1 ZINC000100004345    0.0600
54     H54    -1.6576   -3.2480   -5.0037 H        1 ZINC000100004345    0.0600
55     H55     0.0952   -3.3840   -4.7250 H        1 ZINC000100004345    0.0700
56     H56    -3.6338   -4.6217   -0.9000 H        1 ZINC000100004345    0.1400
57     H57    -3.1421   -4.1339    0.7396 H        1 ZINC000100004345    0.1400
58     H58    -6.1281   -4.6761   -1.3296 H        1 ZINC000100004345    0.3900
59     H59    -6.0684   -6.4508   -1.0045 H        1 ZINC000100004345    0.1400
60     H60    -5.3713   -9.5346    1.8603 H        1 ZINC000100004345    0.1500
61     H61    -4.3302   -3.3498    2.6499 H        1 ZINC000100004345    0.1200
62     H62    -3.4448   -2.5057    4.7791 H        1 ZINC000100004345    0.1400
63     H63    -3.3478   -6.4674    6.3598 H        1 ZINC000100004345    0.1400
64     H64    -4.0951   -8.7477    5.6753 H        1 ZINC000100004345    0.1500
65     H65    -3.1244   -9.5147    2.2691 H        1 ZINC000100004345    0.1300
66     H66    -3.2777  -11.7021    1.1578 H        1 ZINC000100004345    0.1400
67     H67    -5.7374  -13.1646    4.3267 H        1 ZINC000100004345    0.1400
68     H68    -5.5939  -10.9880    5.4600 H        1 ZINC000100004345    0.1400
@<TRIPOS>BOND
1     1     2     1
2     1     38    1
3     1     39    1
4     1     40    1
5     2     3     1
6     2     41    1
7     2     42    1
8     3     4     1
9     3     43    1
10    3     44    1
11    4     5     1
12    4     45    1
13    4     46    1
14    5     6     1
15    5     7     1
16    5     11    1
17    7     8     1
18    7     47    1
19    7     48    1
20    8     9     1
21    8     49    1
22    8     50    1
23    9     10    1
24    9     51    1
25    9     52    1
26    10    53    1
27    10    54    1
28    10    55    1
29    11    12    1
30    11    56    1
31    11    57    1
32    12    13    1
33    12    14    1
34    12    15    1
35    14    58    1
36    15    21    ar
37    15    16    ar
38    16    17    ar
39    16    59    1
40    17    18    1
41    17    19    ar
42    19    20    ar
43    19    60    1
44    20    29    1
45    20    21    ar
46    21    22    1
47    22    28    ar
48    22    23    ar
49    23    24    ar
50    23    61    1
51    24    25    ar
52    24    62    1
53    25    26    1
54    25    27    ar
55    27    28    ar
56    27    63    1
57    28    29    1
58    29    30    2
59    30    31    1
60    30    64    1
61    31    37    ar
62    31    32    ar
63    32    33    ar
64    32    65    1
65    33    34    ar
66    33    66    1
67    34    35    1
68    34    36    ar
69    36    37    ar
70    36    67    1
71    37    68    1
@<TRIPOS>SUBSTRUCTURE
1   ZINC000100004345 1     RESIDUE    1   A     ZIN   1
