@<TRIPOS>MOLECULE
ZINC000003830212
60    62    1     0     0
SMALL
USER_CHARGES
@<TRIPOS>ATOM
1      C1      1.0733   -5.3166   -0.5245 C.3      1 ZINC000003830212   -0.1500
2      C2     -0.3702   -5.6693   -0.8889 C.3      1 ZINC000003830212   -0.1200
3      C3     -1.3215   -4.6669   -0.2323 C.3      1 ZINC000003830212   -0.1200
4      C4     -2.7650   -5.0197   -0.5967 C.3      1 ZINC000003830212   -0.0600
5      C5     -3.7019   -4.0323    0.0501 C.2      1 ZINC000003830212    0.1000
6      C6     -4.1256   -2.8679   -0.5164 C.2      1 ZINC000003830212   -0.2500
7      C7     -3.7673   -2.3438   -1.8422 C.2      1 ZINC000003830212    0.4800
8      O8     -2.8423   -1.5616   -1.9577 O.2      1 ZINC000003830212   -0.4200
9      C9     -4.5296   -2.7665   -3.0336 C.ar     1 ZINC000003830212   -0.1700
10     C10    -5.6635   -3.5712   -2.8909 C.ar     1 ZINC000003830212    0.0000
11     C11    -6.3724   -3.9631   -4.0050 C.ar     1 ZINC000003830212   -0.1400
12     I12    -8.0722   -5.1692   -3.7926 I        1 ZINC000003830212    0.0100
13     C13    -5.9616   -3.5589   -5.2704 C.ar     1 ZINC000003830212    0.2000
14     O14    -6.6631   -3.9468   -6.3657 O.3      1 ZINC000003830212   -0.3000
15     C15    -7.7249   -3.0911   -6.7927 C.3      1 ZINC000003830212    0.0700
16     C16    -8.3944   -3.6885   -8.0320 C.3      1 ZINC000003830212    0.0600
17     N17    -9.0389   -4.9595   -7.6757 N.3      1 ZINC000003830212   -0.5200
18     C18   -10.1554   -4.7413   -6.7463 C.3      1 ZINC000003830212    0.0400
19     C19   -10.6391   -6.0881   -6.2049 C.3      1 ZINC000003830212   -0.1500
20     C20    -9.4862   -5.6778   -8.8765 C.3      1 ZINC000003830212    0.0500
21     C21    -8.2807   -6.3217   -9.5643 C.3      1 ZINC000003830212   -0.1400
22     C22    -4.8345   -2.7581   -5.4166 C.ar     1 ZINC000003830212   -0.1400
23     I23    -4.2224   -2.1519   -7.3263 I        1 ZINC000003830212    0.0000
24     C24    -4.1227   -2.3583   -4.3070 C.ar     1 ZINC000003830212    0.0000
25     C25    -5.0195   -2.2418    0.4784 C.ar     1 ZINC000003830212   -0.1000
26     C26    -5.7591   -1.0648    0.5134 C.ar     1 ZINC000003830212   -0.0800
27     C27    -6.5136   -0.7666    1.6285 C.ar     1 ZINC000003830212   -0.1200
28     C28    -6.5347   -1.6352    2.7087 C.ar     1 ZINC000003830212   -0.0900
29     C29    -5.8050   -2.8050    2.6846 C.ar     1 ZINC000003830212   -0.1000
30     C30    -5.0390   -3.1224    1.5699 C.ar     1 ZINC000003830212    0.0500
31     O31    -4.2467   -4.1708    1.2641 O.3      1 ZINC000003830212   -0.1800
32     H32     1.7510   -6.0308   -0.9923 H        1 ZINC000003830212    0.0600
33     H33     1.3026   -4.3119   -0.8796 H        1 ZINC000003830212    0.0600
34     H34     1.1947   -5.3559    0.5580 H        1 ZINC000003830212    0.0600
35     H35    -0.4916   -5.6301   -1.9714 H        1 ZINC000003830212    0.0600
36     H36    -0.5994   -6.6741   -0.5338 H        1 ZINC000003830212    0.0700
37     H37    -1.2000   -4.7062    0.8502 H        1 ZINC000003830212    0.0700
38     H38    -1.0922   -3.6622   -0.5874 H        1 ZINC000003830212    0.0700
39     H39    -2.8864   -4.9804   -1.6792 H        1 ZINC000003830212    0.1000
40     H40    -2.9942   -6.0244   -0.2416 H        1 ZINC000003830212    0.1000
41     H41    -5.9832   -3.8855   -1.9083 H        1 ZINC000003830212    0.1500
42     H42    -8.4594   -2.9968   -5.9928 H        1 ZINC000003830212    0.0600
43     H43    -7.3235   -2.1072   -7.0352 H        1 ZINC000003830212    0.0600
44     H44    -9.1447   -2.9940   -8.4099 H        1 ZINC000003830212    0.0600
45     H45    -7.6428   -3.8653   -8.8013 H        1 ZINC000003830212    0.0900
46     H46    -9.8220   -4.1155   -5.9184 H        1 ZINC000003830212    0.0800
47     H47   -10.9727   -4.2456   -7.2702 H        1 ZINC000003830212    0.0300
48     H48   -10.9507   -6.7225   -7.0347 H        1 ZINC000003830212    0.0600
49     H49    -9.8286   -6.5733   -5.6611 H        1 ZINC000003830212    0.0600
50     H50   -11.4825   -5.9280   -5.5333 H        1 ZINC000003830212    0.0600
51     H51   -10.1989   -6.4520   -8.5924 H        1 ZINC000003830212    0.0800
52     H52    -9.9643   -4.9776   -9.5616 H        1 ZINC000003830212    0.0300
53     H53    -8.6085   -6.8302  -10.4710 H        1 ZINC000003830212    0.0600
54     H54    -7.5549   -5.5505   -9.8224 H        1 ZINC000003830212    0.0500
55     H55    -7.8199   -7.0431   -8.8895 H        1 ZINC000003830212    0.0600
56     H56    -3.2475   -1.7360   -4.4213 H        1 ZINC000003830212    0.1500
57     H57    -5.7425   -0.3878   -0.3279 H        1 ZINC000003830212    0.1300
58     H58    -7.0894    0.1465    1.6605 H        1 ZINC000003830212    0.1300
59     H59    -7.1282   -1.3931    3.5780 H        1 ZINC000003830212    0.1400
60     H60    -5.8292   -3.4744    3.5318 H        1 ZINC000003830212    0.1400
@<TRIPOS>BOND
1     1     2     1
2     1     32    1
3     1     33    1
4     1     34    1
5     2     3     1
6     2     35    1
7     2     36    1
8     3     4     1
9     3     37    1
10    3     38    1
11    4     5     1
12    4     39    1
13    4     40    1
14    5     31    1
15    5     6     2
16    6     7     1
17    6     25    1
18    7     8     2
19    7     9     1
20    9     24    ar
21    9     10    ar
22    10    11    ar
23    10    41    1
24    11    12    1
25    11    13    ar
26    13    14    1
27    13    22    ar
28    14    15    1
29    15    16    1
30    15    42    1
31    15    43    1
32    16    17    1
33    16    44    1
34    16    45    1
35    17    18    1
36    17    20    1
37    18    19    1
38    18    46    1
39    18    47    1
40    19    48    1
41    19    49    1
42    19    50    1
43    20    21    1
44    20    51    1
45    20    52    1
46    21    53    1
47    21    54    1
48    21    55    1
49    22    23    1
50    22    24    ar
51    24    56    1
52    25    30    ar
53    25    26    ar
54    26    27    ar
55    26    57    1
56    27    28    ar
57    27    58    1
58    28    29    ar
59    28    59    1
60    29    30    ar
61    29    60    1
62    30    31    1
@<TRIPOS>SUBSTRUCTURE
1   ZINC000003830212 1     RESIDUE    1   A     ZIN   1
