@<TRIPOS>MOLECULE
ZINC000003809490
14   13    0    0    0
SMALL
USER_CHARGES
NO_NAME
@<TRIPOS>ATOM
1 N1       -0.0116     1.0048     0.0076 N.4    1 <0>      -0.6300
2 H2        0.0021    -0.0041     0.0020 H      1 <0>       0.4300
3 H3        0.9350     1.3541     0.0004 H      1 <0>       0.4300
4 H4       -0.4996     1.3391    -0.8099 H      1 <0>       0.4300
5 C5       -0.6992     1.4786     1.2162 C.3    1 <0>       0.0200
6 C6        0.0408     0.9717     2.4557 C.3    1 <0>      -0.7200
7 S7       -0.8083     1.5567     3.9482 S.o2   1 <0>       2.6300
8 O8       -0.0935     1.0672     5.1167 O.co2  1 <0>      -1.0400
9 O9       -0.8197     3.0114     3.9415 O.co2  1 <0>      -1.0400
10 O10      -2.1701     1.0455     3.9439 O.co2  1 <0>      -1.0400
11 H11      -0.7140     2.5685     1.2222 H      1 <0>       0.1400
12 H12      -1.7218     1.1013     1.2239 H      1 <0>       0.1400
13 H13       0.0556    -0.1181     2.4497 H      1 <0>       0.1300
14 H14       1.0634     1.3490     2.4480 H      1 <0>       0.1300
@<TRIPOS>BOND
1    1    2 1
2    1    3 1
3    1    4 1
4    1    5 1
5    5    6 1
6    5   11 1
7    5   12 1
8    6    7 1
9    6   13 1
10    6   14 1
11    7    8 ar
12    7    9 ar
13    7   10 ar
