@<TRIPOS>MOLECULE
ZINC000000120319
27    28    1     0     0
SMALL
USER_CHARGES
@<TRIPOS>ATOM
1      N1     -0.0169    1.3925    0.0097 N.pl3    1 ZINC000000120319   -0.8700
2      C2      0.0021   -0.0041    0.0020 C.ar     1 ZINC000000120319    0.2700
3      C3     -1.1905   -0.7164    0.0038 C.ar     1 ZINC000000120319   -0.2200
4      C4     -1.1681   -2.0973   -0.0043 C.ar     1 ZINC000000120319    0.0300
5      C5      0.0396   -2.7708   -0.0137 C.ar     1 ZINC000000120319   -0.7300
6      S6      0.0635   -4.5326   -0.0240 S.o2     1 ZINC000000120319    2.7000
7      O7      1.3210   -4.9200    0.5125 O.2      1 ZINC000000120319   -0.9400
8      O8     -1.1782   -4.9539    0.5236 O.2      1 ZINC000000120319   -0.9500
9      N9      0.0629   -5.0136   -1.6086 N.am     1 ZINC000000120319   -1.0200
10     C10     1.1417   -4.7152   -2.4228 C.ar     1 ZINC000000120319    0.5600
11     N11     2.0214   -3.8082   -2.0241 N.ar     1 ZINC000000120319   -0.5600
12     C12     3.0637   -3.5000   -2.7781 C.ar     1 ZINC000000120319    0.1900
13     C13     3.2287   -4.1386   -3.9971 C.ar     1 ZINC000000120319   -0.2600
14     C14     2.2898   -5.0821   -4.3834 C.ar     1 ZINC000000120319    0.1900
15     N15     1.2731   -5.3472   -3.5798 N.ar     1 ZINC000000120319   -0.5400
16     C16     1.2286   -2.0647   -0.0155 C.ar     1 ZINC000000120319    0.0600
17     C17     1.2135   -0.6838   -0.0132 C.ar     1 ZINC000000120319   -0.2300
18     H18     0.8165    1.8889    0.0044 H        1 ZINC000000120319    0.4000
19     H19    -0.8634    1.8661    0.0163 H        1 ZINC000000120319    0.4000
20     H20    -2.1340   -0.1911    0.0118 H        1 ZINC000000120319    0.1300
21     H21    -2.0949   -2.6517   -0.0030 H        1 ZINC000000120319    0.1400
22     H22    -0.6934   -5.5045   -1.9662 H        1 ZINC000000120319    0.4400
23     H23     3.7772   -2.7596   -2.4479 H        1 ZINC000000120319    0.1800
24     H24     4.0705   -3.9057   -4.6324 H        1 ZINC000000120319    0.1500
25     H25     2.3891   -5.5974   -5.3273 H        1 ZINC000000120319    0.1800
26     H26     2.1701   -2.5938   -0.0228 H        1 ZINC000000120319    0.1500
27     H27     2.1424   -0.1329   -0.0149 H        1 ZINC000000120319    0.1300
@<TRIPOS>BOND
1     1     2     1
2     1     18    1
3     1     19    1
4     2     17    ar
5     2     3     ar
6     3     4     ar
7     3     20    1
8     4     5     ar
9     4     21    1
10    5     6     1
11    5     16    ar
12    6     7     2
13    6     8     2
14    6     9     am
15    9     10    1
16    9     22    1
17    10    15    ar
18    10    11    ar
19    11    12    ar
20    12    13    ar
21    12    23    1
22    13    14    ar
23    13    24    1
24    14    15    ar
25    14    25    1
26    16    17    ar
27    16    26    1
28    17    27    1
@<TRIPOS>SUBSTRUCTURE
1   ZINC000000120319 1     RESIDUE    1   A     ZIN   1
