@<TRIPOS>MOLECULE
ZINC000001530571
59   62    0    0    0
SMALL
USER_CHARGES
NO_NAME
@<TRIPOS>ATOM
1 O1        0.0021    -0.0041     0.0020 O.2    1 <0>      -0.5000
2 C2       -0.0144     1.2081     0.0087 C.2    1 <0>       0.5200
3 C3       -1.3373     1.9288     0.0314 C.3    1 <0>      -0.1300
4 C4       -1.1616     3.2797     0.7233 C.3    1 <0>      -0.0700
5 C5       -2.4720     4.0769     0.6688 C.3    1 <0>      -0.1100
6 C6       -2.8942     4.3245     2.1329 C.3    1 <0>      -0.1300
7 C7       -1.5721     4.2173     2.9333 C.3    1 <0>      -0.1200
8 C8       -0.8252     3.0681     2.2100 C.3    1 <0>      -0.1200
9 C9       -0.0402     4.0629     0.0422 C.3    1 <0>      -0.1300
10 C10       1.2090     3.2209     0.0192 C.2    1 <0>       0.5200
11 O11       2.2925     3.7647     0.0221 O.2    1 <0>      -0.5000
12 N12       1.1454     1.8815     0.0012 N.am   1 <0>      -0.5700
13 C13       2.3969     1.1210    -0.0398 C.3    1 <0>       0.0900
14 C14       2.8671     0.8353     1.3878 C.3    1 <0>      -0.1300
15 C15       4.1741     0.0411     1.3449 C.3    1 <0>      -0.1200
16 C16       4.6443    -0.2447     2.7726 C.3    1 <0>       0.0600
17 N17       5.8992    -1.0072     2.7314 N.3    1 <0>      -0.5400
18 C18       5.8163    -2.1053     1.7592 C.3    1 <0>       0.0300
19 C19       7.1944    -2.7597     1.6141 C.3    1 <0>       0.1300
20 N20       7.6707    -3.1471     2.9506 N.pl3  1 <0>      -0.5800
21 C21       8.1234    -4.4313     3.1988 C.ar   1 <0>       0.5700
22 N22       8.1298    -5.3166     2.2131 N.ar   1 <0>      -0.5700
23 C23       8.5565    -6.5520     2.4167 C.ar   1 <0>       0.1900
24 C24       8.9998    -6.9149     3.6788 C.ar   1 <0>      -0.3000
25 C25       8.9796    -5.9640     4.6870 C.ar   1 <0>       0.1900
26 N26       8.5451    -4.7445     4.4152 N.ar   1 <0>      -0.5700
27 C27       7.6537    -2.1335     4.0162 C.3    1 <0>       0.1300
28 C28       6.2576    -1.5037     4.0667 C.3    1 <0>       0.0400
29 H29      -1.6844     2.0851    -0.9899 H      1 <0>       0.1100
30 H30      -2.0677     1.3321     0.5778 H      1 <0>       0.1200
31 H31      -2.3105     5.0275     0.1604 H      1 <0>       0.0800
32 H32      -3.2388     3.5010     0.1508 H      1 <0>       0.0700
33 H33      -3.3267     5.3190     2.2422 H      1 <0>       0.0700
34 H34      -3.6011     3.5620     2.4601 H      1 <0>       0.0700
35 H35      -1.0057     5.1464     2.8694 H      1 <0>       0.0700
36 H36      -1.7701     3.9552     3.9726 H      1 <0>       0.0700
37 H37      -1.1926     2.1000     2.5505 H      1 <0>       0.0700
38 H38       0.2495     3.1487     2.3735 H      1 <0>       0.0700
39 H39      -0.3341     4.3063    -0.9788 H      1 <0>       0.1100
40 H40       0.1503     4.9821     0.5961 H      1 <0>       0.1200
41 H41       2.2328     0.1793    -0.5637 H      1 <0>       0.0900
42 H42       3.1571     1.7005    -0.5636 H      1 <0>       0.1000
43 H43       3.0312     1.7770     1.9116 H      1 <0>       0.0700
44 H44       2.1069     0.2558     1.9116 H      1 <0>       0.0700
45 H45       4.0100    -0.9006     0.8211 H      1 <0>       0.0700
46 H46       4.9344     0.6205     0.8212 H      1 <0>       0.0800
47 H47       4.8084     0.6970     3.2964 H      1 <0>       0.0800
48 H48       3.8841    -0.8242     3.2964 H      1 <0>       0.0300
49 H49       5.0967    -2.8461     2.1077 H      1 <0>       0.0400
50 H50       5.4965    -1.7130     0.7938 H      1 <0>       0.1000
51 H51       7.1147    -3.6449     0.9830 H      1 <0>       0.1000
52 H52       7.8915    -2.0503     1.1683 H      1 <0>       0.0700
53 H53       8.5590    -7.2693     1.6093 H      1 <0>       0.1700
54 H54       9.3530    -7.9169     3.8725 H      1 <0>       0.1400
55 H55       9.3179    -6.2146     5.6815 H      1 <0>       0.1700
56 H56       7.8778    -2.6045     4.9732 H      1 <0>       0.1000
57 H57       8.3950    -1.3638     3.8013 H      1 <0>       0.0700
58 H58       6.2578    -0.6751     4.7749 H      1 <0>       0.0900
59 H59       5.5319    -2.2529     4.3831 H      1 <0>       0.0400
@<TRIPOS>BOND
1    1    2 2
2    2   12 am
3    2    3 1
4    3    4 1
5    3   29 1
6    3   30 1
7    4    8 1
8    4    5 1
9    4    9 1
10    5    6 1
11    5   31 1
12    5   32 1
13    6    7 1
14    6   33 1
15    6   34 1
16    7    8 1
17    7   35 1
18    7   36 1
19    8   37 1
20    8   38 1
21    9   10 1
22    9   39 1
23    9   40 1
24   10   11 2
25   10   12 am
26   12   13 1
27   13   14 1
28   13   41 1
29   13   42 1
30   14   15 1
31   14   43 1
32   14   44 1
33   15   16 1
34   15   45 1
35   15   46 1
36   16   17 1
37   16   47 1
38   16   48 1
39   17   28 1
40   17   18 1
41   18   19 1
42   18   49 1
43   18   50 1
44   19   20 1
45   19   51 1
46   19   52 1
47   20   21 1
48   20   27 1
49   21   26 ar
50   21   22 ar
51   22   23 ar
52   23   24 ar
53   23   53 1
54   24   25 ar
55   24   54 1
56   25   26 ar
57   25   55 1
58   27   28 1
59   27   56 1
60   27   57 1
61   28   58 1
62   28   59 1
