@<TRIPOS>MOLECULE
ZINC000001554392
36    35    1     0     0
SMALL
USER_CHARGES
@<TRIPOS>ATOM
1      C1     -0.0187    1.5258    0.0104 C.3      1 ZINC000001554392   -0.1500
2      C2      0.0021   -0.0041    0.0020 C.3      1 ZINC000001554392   -0.1300
3      C3      0.7182   -0.4975   -1.2568 C.3      1 ZINC000001554392   -0.1200
4      C4      0.7390   -2.0273   -1.2652 C.3      1 ZINC000001554392   -0.1200
5      C5      1.4551   -2.5207   -2.5240 C.3      1 ZINC000001554392   -0.1200
6      C6      1.4758   -4.0506   -2.5324 C.3      1 ZINC000001554392    0.0700
7      O7      2.1555   -4.5188   -3.7270 O.3      1 ZINC000001554392   -0.3600
8      C8      2.2600   -5.8474   -3.8875 C.2      1 ZINC000001554392    0.4600
9      O9      1.7989   -6.5943   -3.0572 O.2      1 ZINC000001554392   -0.5100
10     C10     2.9525   -6.4074   -5.1032 C.3      1 ZINC000001554392   -0.1100
11     C11     2.9338   -7.9361   -5.0419 C.3      1 ZINC000001554392   -0.1600
12     C12     3.6263   -8.4960   -6.2576 C.2      1 ZINC000001554392    0.3500
13     O13     4.0872   -7.7495   -7.0874 O.2      1 ZINC000001554392   -0.4400
14     C14     3.7437   -9.9876   -6.4377 C.3      1 ZINC000001554392    0.0100
15     N15     4.4544  -10.2751   -7.6908 N.3      1 ZINC000001554392   -0.8400
16     H16     1.0039    1.9031    0.0027 H        1 ZINC000001554392    0.0500
17     H17    -0.5459    1.8868   -0.8726 H        1 ZINC000001554392    0.0500
18     H18    -0.5289    1.8773    0.9072 H        1 ZINC000001554392    0.0500
19     H19     0.5293   -0.3651    0.8851 H        1 ZINC000001554392    0.0600
20     H20    -1.0205   -0.3814    0.0098 H        1 ZINC000001554392    0.0600
21     H21     0.1910   -0.1364   -2.1398 H        1 ZINC000001554392    0.0600
22     H22     1.7408   -0.1202   -1.2645 H        1 ZINC000001554392    0.0600
23     H23     1.2661   -2.3884   -0.3821 H        1 ZINC000001554392    0.0700
24     H24    -0.2836   -2.4046   -1.2575 H        1 ZINC000001554392    0.0700
25     H25     0.9279   -2.1597   -3.4071 H        1 ZINC000001554392    0.0800
26     H26     2.4777   -2.1435   -2.5317 H        1 ZINC000001554392    0.0800
27     H27     2.0030   -4.4117   -1.6494 H        1 ZINC000001554392    0.0700
28     H28     0.4533   -4.4279   -2.5247 H        1 ZINC000001554392    0.0700
29     H29     2.4347   -6.0735   -6.0024 H        1 ZINC000001554392    0.1100
30     H30     3.9845   -6.0573   -5.1270 H        1 ZINC000001554392    0.1100
31     H31     3.4516   -8.2700   -4.1427 H        1 ZINC000001554392    0.1100
32     H32     1.9019   -8.2862   -5.0180 H        1 ZINC000001554392    0.1100
33     H33     4.2973  -10.4123   -5.6003 H        1 ZINC000001554392    0.0600
34     H34     2.7475  -10.4285   -6.4756 H        1 ZINC000001554392    0.1100
35     H35     5.3562   -9.8228   -7.7069 H        1 ZINC000001554392    0.3500
36     H36     4.5460  -11.2696   -7.8346 H        1 ZINC000001554392    0.3500
@<TRIPOS>BOND
1     1     2     1
2     1     16    1
3     1     17    1
4     1     18    1
5     2     3     1
6     2     19    1
7     2     20    1
8     3     4     1
9     3     21    1
10    3     22    1
11    4     5     1
12    4     23    1
13    4     24    1
14    5     6     1
15    5     25    1
16    5     26    1
17    6     7     1
18    6     27    1
19    6     28    1
20    7     8     1
21    8     9     2
22    8     10    1
23    10    11    1
24    10    29    1
25    10    30    1
26    11    12    1
27    11    31    1
28    11    32    1
29    12    13    2
30    12    14    1
31    14    15    1
32    14    33    1
33    14    34    1
34    15    35    1
35    15    36    1
@<TRIPOS>SUBSTRUCTURE
1   ZINC000001554392 1     RESIDUE    1   A     ZIN   1
