@<TRIPOS>MOLECULE
ZINC000000537928
68   71    0    0    0
SMALL
USER_CHARGES
NO_NAME
@<TRIPOS>ATOM
1 C1       -0.2907     1.5434    -0.5431 C.3    1 <0>       0.0800
2 N2       -0.1706     0.1023    -0.3083 N.am   1 <0>      -0.6100
3 C3       -0.0662    -0.4108     1.0599 C.3    1 <0>       0.0600
4 C4       -0.1563    -0.7514    -1.3511 C.2    1 <0>       0.5100
5 O5       -0.1453    -0.3228    -2.4856 O.2    1 <0>      -0.5100
6 C6       -0.1539    -2.2386    -1.1074 C.3    1 <0>       0.0300
7 C7       -1.4808    -2.6527    -0.4680 C.3    1 <0>      -0.1500
8 C8       -2.6408    -2.1589    -1.3350 C.3    1 <0>      -0.0300
9 N9       -3.9127    -2.4308    -0.6522 N.4    1 <0>      -0.3800
10 H10      -3.9685    -3.4125    -0.4256 H      1 <0>       0.4200
11 C11      -5.0277    -2.0700    -1.5360 C.3    1 <0>       0.0000
12 C12      -6.3541    -2.4265    -0.8616 C.3    1 <0>      -0.1300
13 C13      -6.4744    -1.6547     0.4556 C.3    1 <0>       0.1700
14 O14      -6.5032    -0.2516     0.1864 O.3    1 <0>      -0.5500
15 C15      -7.7429    -2.0584     1.1622 C.ar   1 <0>      -0.1300
16 C16      -8.2481    -3.3349     0.9995 C.ar   1 <0>      -0.1000
17 C17      -9.4114    -3.7057     1.6473 C.ar   1 <0>      -0.1000
18 C18     -10.0702    -2.7991     2.4586 C.ar   1 <0>      -0.0200
19 Cl19    -11.5310    -3.2643     3.2730 Cl     1 <0>      -0.0500
20 C20      -9.5641    -1.5218     2.6210 C.ar   1 <0>      -0.1000
21 C21      -8.3976    -1.1539     1.9772 C.ar   1 <0>      -0.0900
22 C22      -5.2675    -1.9819     1.3396 C.3    1 <0>      -0.1700
23 C23      -3.9821    -1.6405     0.5828 C.3    1 <0>      -0.0100
24 C24       0.0196    -2.9621    -2.4179 C.ar   1 <0>      -0.0900
25 C25      -0.7969    -2.6551    -3.4903 C.ar   1 <0>      -0.1000
26 C26      -0.6377    -3.3188    -4.6925 C.ar   1 <0>      -0.1200
27 C27       0.3383    -4.2891    -4.8223 C.ar   1 <0>      -0.1000
28 C28       1.1554    -4.5954    -3.7502 C.ar   1 <0>      -0.1200
29 C29       0.9990    -3.9287    -2.5494 C.ar   1 <0>      -0.1000
30 C30       0.9818    -2.5943    -0.1830 C.ar   1 <0>      -0.0800
31 C31       0.7357    -3.3229     0.9657 C.ar   1 <0>      -0.1200
32 C32       1.7775    -3.6492     1.8137 C.ar   1 <0>      -0.1100
33 C33       3.0654    -3.2473     1.5127 C.ar   1 <0>      -0.1100
34 C34       3.3117    -2.5195     0.3636 C.ar   1 <0>      -0.1100
35 C35       2.2705    -2.1969    -0.4866 C.ar   1 <0>      -0.1100
36 H36       0.7031     1.9781    -0.6505 H      1 <0>       0.0600
37 H37      -0.8634     1.7167    -1.4541 H      1 <0>       0.0800
38 H38      -0.8011     2.0077     0.3008 H      1 <0>       0.0800
39 H39      -0.0043     0.4245     1.7574 H      1 <0>       0.0800
40 H40      -0.9454    -1.0123     1.2905 H      1 <0>       0.0500
41 H41       0.8289    -1.0262     1.1498 H      1 <0>       0.0900
42 H42      -1.5228    -3.7390    -0.3894 H      1 <0>       0.1100
43 H43      -1.5577    -2.2132     0.5264 H      1 <0>       0.1000
44 H44      -2.5395    -1.0864    -1.5009 H      1 <0>       0.1300
45 H45      -2.6247    -2.6779    -2.2933 H      1 <0>       0.1500
46 H46      -4.9993    -0.9991    -1.7373 H      1 <0>       0.1400
47 H47      -4.9389    -2.6176    -2.4743 H      1 <0>       0.1400
48 H48      -7.1808    -2.1562    -1.5186 H      1 <0>       0.1300
49 H49      -6.3837    -3.4973    -0.6600 H      1 <0>       0.1100
50 H50      -6.5785     0.2992     0.9776 H      1 <0>       0.3900
51 H51      -7.7339    -4.0424     0.3659 H      1 <0>       0.1300
52 H52      -9.8062    -4.7029     1.5199 H      1 <0>       0.1400
53 H53     -10.0781    -0.8136     3.2539 H      1 <0>       0.1400
54 H54      -8.0022    -0.1570     2.1041 H      1 <0>       0.1300
55 H55      -5.3174    -1.3938     2.2560 H      1 <0>       0.1200
56 H56      -5.2745    -3.0435     1.5869 H      1 <0>       0.1000
57 H57      -3.1201    -1.8717     1.2086 H      1 <0>       0.1300
58 H58      -3.9770    -0.5786     0.3368 H      1 <0>       0.1400
59 H59      -1.5594    -1.8970    -3.3889 H      1 <0>       0.1200
60 H60      -1.2761    -3.0794    -5.5301 H      1 <0>       0.1300
61 H61       0.4622    -4.8081    -5.7613 H      1 <0>       0.1300
62 H62       1.9176    -5.3537    -3.8516 H      1 <0>       0.1300
63 H63       1.6374    -4.1680    -1.7118 H      1 <0>       0.1300
64 H64      -0.2706    -3.6369     1.2008 H      1 <0>       0.1200
65 H65       1.5851    -4.2178     2.7115 H      1 <0>       0.1300
66 H66       3.8793    -3.5017     2.1756 H      1 <0>       0.1300
67 H67       4.3179    -2.2053     0.1286 H      1 <0>       0.1300
68 H68       2.4629    -1.6283    -1.3844 H      1 <0>       0.1200
@<TRIPOS>BOND
1    1    2 1
2    1   36 1
3    1   37 1
4    1   38 1
5    2    3 1
6    2    4 am
7    3   39 1
8    3   40 1
9    3   41 1
10    4    5 2
11    4    6 1
12    6    7 1
13    6   24 1
14    6   30 1
15    7    8 1
16    7   42 1
17    7   43 1
18    8    9 1
19    8   44 1
20    8   45 1
21    9   10 1
22    9   23 1
23    9   11 1
24   11   12 1
25   11   46 1
26   11   47 1
27   12   13 1
28   12   48 1
29   12   49 1
30   13   14 1
31   13   15 1
32   13   22 1
33   14   50 1
34   15   21 ar
35   15   16 ar
36   16   17 ar
37   16   51 1
38   17   18 ar
39   17   52 1
40   18   19 1
41   18   20 ar
42   20   21 ar
43   20   53 1
44   21   54 1
45   22   23 1
46   22   55 1
47   22   56 1
48   23   57 1
49   23   58 1
50   24   29 ar
51   24   25 ar
52   25   26 ar
53   25   59 1
54   26   27 ar
55   26   60 1
56   27   28 ar
57   27   61 1
58   28   29 ar
59   28   62 1
60   29   63 1
61   30   35 ar
62   30   31 ar
63   31   32 ar
64   31   64 1
65   32   33 ar
66   32   65 1
67   33   34 ar
68   33   66 1
69   34   35 ar
70   34   67 1
71   35   68 1
