@<TRIPOS>MOLECULE
ZINC000018516586
61    64    1     0     0
SMALL
USER_CHARGES
@<TRIPOS>ATOM
1      C1      4.5903   -3.7352    0.0689 C.3      1 ZINC000018516586   -0.1800
2      C2      4.6942   -2.3852   -0.6436 C.3      1 ZINC000018516586    0.1300
3      C3      5.8233   -2.4383   -1.6747 C.3      1 ZINC000018516586   -0.1700
4      N4      3.4285   -2.0914   -1.3202 N.pl3    1 ZINC000018516586   -0.7000
5      C5      2.3813   -1.4868   -0.6144 C.ar     1 ZINC000018516586    0.2200
6      C6      2.4997   -1.2378    0.7461 C.ar     1 ZINC000018516586   -0.0800
7      C7      1.4347   -0.6357    1.4035 C.ar     1 ZINC000018516586   -0.0800
8      C8      0.2998   -0.3050    0.6921 C.ar     1 ZINC000018516586    0.0800
9      N9      0.2122   -0.5526   -0.6023 N.ar     1 ZINC000018516586   -0.4400
10     H10    -0.5982   -0.3086   -1.0762 H        1 ZINC000018516586    0.4400
11     C11     1.2030   -1.1192   -1.2699 C.ar     1 ZINC000018516586    0.2600
12     N12     1.0670   -1.3617   -2.6346 N.3      1 ZINC000018516586   -0.4700
13     C13    -0.1176   -0.6811   -3.1747 C.3      1 ZINC000018516586    0.0100
14     C14    -0.1316   -0.8211   -4.7007 C.3      1 ZINC000018516586    0.1200
15     N15    -0.0256   -2.2483   -5.0399 N.am     1 ZINC000018516586   -0.6200
16     C16    -0.8989   -2.8240   -5.8898 C.2      1 ZINC000018516586    0.5900
17     O17    -1.7822   -2.1590   -6.3972 O.2      1 ZINC000018516586   -0.5000
18     C18    -0.7840   -4.2560   -6.2038 C.2      1 ZINC000018516586    0.0000
19     C19    -1.8011   -5.0550   -6.6203 C.2      1 ZINC000018516586   -0.0900
20     C20    -1.2770   -6.3563   -6.8125 C.ar     1 ZINC000018516586   -0.1000
21     C21    -1.8441   -7.5685   -7.2268 C.ar     1 ZINC000018516586   -0.0700
22     C22    -1.0535   -8.6965   -7.3184 C.ar     1 ZINC000018516586    0.1200
23     N23    -1.6159   -9.9094   -7.7323 N.am     1 ZINC000018516586   -1.0600
24     S24    -0.8447  -10.8346   -8.8688 S.o2     1 ZINC000018516586    2.6100
25     C25    -0.7646   -9.7734  -10.3378 C.3      1 ZINC000018516586   -0.6700
26     O26     0.4543  -11.0401   -8.3307 O.2      1 ZINC000018516586   -0.9500
27     O27    -1.7273  -11.9262   -9.0897 O.2      1 ZINC000018516586   -0.9500
28     C28     0.3033   -8.6330   -7.0008 C.ar     1 ZINC000018516586   -0.1100
29     C29     0.8721   -7.4485   -6.5922 C.ar     1 ZINC000018516586   -0.1100
30     C30     0.0936   -6.2991   -6.4933 C.ar     1 ZINC000018516586    0.1100
31     N31     0.3761   -5.0016   -6.1281 N.pl3    1 ZINC000018516586   -0.5900
32     C32     1.0584   -3.0307   -4.4267 C.3      1 ZINC000018516586    0.0800
33     C33     1.0256   -2.8037   -2.9116 C.3      1 ZINC000018516586    0.0300
34     H34     3.7859   -3.6974    0.8035 H        1 ZINC000018516586    0.0600
35     H35     4.3789   -4.5162   -0.6615 H        1 ZINC000018516586    0.0700
36     H36     5.5321   -3.9538    0.5723 H        1 ZINC000018516586    0.0800
37     H37     4.9056   -1.6042    0.0868 H        1 ZINC000018516586    0.0900
38     H38     5.6119   -3.2193   -2.4051 H        1 ZINC000018516586    0.0700
39     H39     5.8974   -1.4766   -2.1823 H        1 ZINC000018516586    0.0700
40     H40     6.7651   -2.6570   -1.1713 H        1 ZINC000018516586    0.0900
41     H41     3.3159   -2.3158   -2.2571 H        1 ZINC000018516586    0.4100
42     H42     3.3987   -1.5065    1.2810 H        1 ZINC000018516586    0.1700
43     H43     1.4943   -0.4285    2.4617 H        1 ZINC000018516586    0.1900
44     H44    -0.5296    0.1630    1.2015 H        1 ZINC000018516586    0.2100
45     H45    -1.0180   -1.1339   -2.7597 H        1 ZINC000018516586    0.0700
46     H46    -0.0842    0.3749   -2.9066 H        1 ZINC000018516586    0.1100
47     H47    -1.0640   -0.4189   -5.0967 H        1 ZINC000018516586    0.1200
48     H48     0.7137   -0.2799   -5.1258 H        1 ZINC000018516586    0.0900
49     H49    -2.8259   -4.7520   -6.7762 H        1 ZINC000018516586    0.1600
50     H50    -2.8944   -7.6203   -7.4729 H        1 ZINC000018516586    0.1400
51     H51    -2.4575  -10.2081   -7.3535 H        1 ZINC000018516586    0.4300
52     H52    -0.1310   -8.9114  -10.1292 H        1 ZINC000018516586    0.1300
53     H53    -0.3471  -10.3380  -11.1715 H        1 ZINC000018516586    0.1400
54     H54    -1.7676   -9.4333  -10.5955 H        1 ZINC000018516586    0.1300
55     H55     0.9126   -9.5215   -7.0760 H        1 ZINC000018516586    0.1700
56     H56     1.9236   -7.4107   -6.3485 H        1 ZINC000018516586    0.1300
57     H57     1.2462   -4.6669   -5.8602 H        1 ZINC000018516586    0.4200
58     H58     0.9128   -4.0893   -4.6416 H        1 ZINC000018516586    0.1200
59     H59     2.0181   -2.7019   -4.8255 H        1 ZINC000018516586    0.0900
60     H60     1.8880   -3.2871   -2.4526 H        1 ZINC000018516586    0.1100
61     H61     0.1092   -3.2269   -2.5002 H        1 ZINC000018516586    0.0800
@<TRIPOS>BOND
1     1     2     1
2     1     34    1
3     1     35    1
4     1     36    1
5     2     3     1
6     2     4     1
7     2     37    1
8     3     38    1
9     3     39    1
10    3     40    1
11    4     5     1
12    4     41    1
13    5     11    ar
14    5     6     ar
15    6     7     ar
16    6     42    1
17    7     8     ar
18    7     43    1
19    8     9     ar
20    8     44    1
21    9     10    1
22    9     11    ar
23    11    12    1
24    12    33    1
25    12    13    1
26    13    14    1
27    13    45    1
28    13    46    1
29    14    15    1
30    14    47    1
31    14    48    1
32    15    16    am
33    15    32    1
34    16    17    2
35    16    18    1
36    18    31    1
37    18    19    2
38    19    20    1
39    19    49    1
40    20    30    ar
41    20    21    ar
42    21    22    ar
43    21    50    1
44    22    23    1
45    22    28    ar
46    23    24    am
47    23    51    1
48    24    25    1
49    24    26    2
50    24    27    2
51    25    52    1
52    25    53    1
53    25    54    1
54    28    29    ar
55    28    55    1
56    29    30    ar
57    29    56    1
58    30    31    1
59    31    57    1
60    32    33    1
61    32    58    1
62    32    59    1
63    33    60    1
64    33    61    1
@<TRIPOS>SUBSTRUCTURE
1   ZINC000018516586 1     RESIDUE    1   A     ZIN   1
