@<TRIPOS>MOLECULE
ZINC000000006300
38    40    1     0     0
SMALL
USER_CHARGES
@<TRIPOS>ATOM
1      C1      0.0524    1.4364   -0.0990 C.3      1 ZINC000000006300   -0.1800
2      C2      0.0432   -0.0905   -0.0028 C.3      1 ZINC000000006300    0.0900
3      N3      0.7105   -0.5060    1.2334 N.am     1 ZINC000000006300   -0.5500
4      C4      0.0191   -0.5530    2.3894 C.2      1 ZINC000000006300    0.5100
5      C5     -1.4685   -0.3121    2.3880 C.3      1 ZINC000000006300   -0.1800
6      O6      0.5942   -0.7893    3.4308 O.2      1 ZINC000000006300   -0.5200
7      C7      2.0659   -0.8540    1.2141 C.ar     1 ZINC000000006300    0.1500
8      C8      2.8210   -0.6432    0.0667 C.ar     1 ZINC000000006300   -0.1400
9      C9      4.1604   -0.9857    0.0420 C.ar     1 ZINC000000006300   -0.0900
10     C10     4.7565   -1.5391    1.1564 C.ar     1 ZINC000000006300   -0.0900
11     C11     4.0064   -1.7547    2.3149 C.ar     1 ZINC000000006300   -0.0600
12     C12     4.6419   -2.3466    3.5099 C.2      1 ZINC000000006300    0.2600
13     C13     4.7607   -1.6179    4.6775 C.2      1 ZINC000000006300   -0.2000
14     C14     5.3666   -2.2084    5.7872 C.2      1 ZINC000000006300    0.2000
15     N15     5.8174   -3.4427    5.7187 N.2      1 ZINC000000006300   -0.4700
16     C16     5.7099   -4.1584    4.5987 C.2      1 ZINC000000006300    0.3200
17     C17     6.1013   -5.4700    4.2690 C.2      1 ZINC000000006300   -0.1900
18     C18     6.7554   -6.4066    5.1324 C.1      1 ZINC000000006300    0.3000
19     N19     7.2744   -7.1496    5.8174 N.1      1 ZINC000000006300   -0.4300
20     C20     5.7273   -5.6856    2.9311 C.2      1 ZINC000000006300    0.1500
21     N21     5.1550   -4.6019    2.4747 N.2      1 ZINC000000006300   -0.3000
22     N22     5.1204   -3.6328    3.4827 N.pl3    1 ZINC000000006300   -0.3000
23     C23     2.6564   -1.4038    2.3413 C.ar     1 ZINC000000006300   -0.1200
24     H24     1.0821    1.7940   -0.1040 H        1 ZINC000000006300    0.0600
25     H25    -0.4441    1.7455   -1.0188 H        1 ZINC000000006300    0.0800
26     H26    -0.4742    1.8576    0.7574 H        1 ZINC000000006300    0.0600
27     H27    -0.9864   -0.4481    0.0022 H        1 ZINC000000006300    0.1000
28     H28     0.5699   -0.5117   -0.8592 H        1 ZINC000000006300    0.0900
29     H29    -1.7894   -0.0267    1.3861 H        1 ZINC000000006300    0.0900
30     H30    -1.9845   -1.2238    2.6889 H        1 ZINC000000006300    0.1000
31     H31    -1.7075    0.4886    3.0879 H        1 ZINC000000006300    0.1000
32     H32     2.3600   -0.2107   -0.8090 H        1 ZINC000000006300    0.1300
33     H33     4.7419   -0.8197   -0.8529 H        1 ZINC000000006300    0.1400
34     H34     5.8027   -1.8059    1.1329 H        1 ZINC000000006300    0.1300
35     H35     4.3900   -0.6049    4.7306 H        1 ZINC000000006300    0.1800
36     H36     5.4662   -1.6499    6.7062 H        1 ZINC000000006300    0.1900
37     H37     5.8866   -6.5960    2.3723 H        1 ZINC000000006300    0.2100
38     H38     2.0712   -1.5680    3.2340 H        1 ZINC000000006300    0.1800
@<TRIPOS>BOND
1     1     2     1
2     1     24    1
3     1     25    1
4     1     26    1
5     2     3     1
6     2     27    1
7     2     28    1
8     3     4     am
9     3     7     1
10    4     5     1
11    4     6     2
12    5     29    1
13    5     30    1
14    5     31    1
15    7     23    ar
16    7     8     ar
17    8     9     ar
18    8     32    1
19    9     10    ar
20    9     33    1
21    10    11    ar
22    10    34    1
23    11    12    1
24    11    23    ar
25    12    22    1
26    12    13    2
27    13    14    1
28    13    35    1
29    14    15    2
30    14    36    1
31    15    16    1
32    16    22    1
33    16    17    2
34    17    18    1
35    17    20    1
36    18    19    3
37    20    21    2
38    20    37    1
39    21    22    1
40    23    38    1
@<TRIPOS>SUBSTRUCTURE
1   ZINC000000006300 1     RESIDUE    1   A     ZIN   1
