@<TRIPOS>MOLECULE
ZINC000001481910
33   33    0    0    0
SMALL
USER_CHARGES
NO_NAME
@<TRIPOS>ATOM
1 C1       -0.0178     1.4648     0.0101 C.3    1 <0>      -0.0500
2 N2        0.0021    -0.0041     0.0020 N.4    1 <0>      -0.5100
3 H3        0.4901    -0.3383     0.8195 H      1 <0>       0.4300
4 H4       -0.9445    -0.3533     0.0092 H      1 <0>       0.4300
5 C5        0.6897    -0.4778    -1.2066 C.3    1 <0>       0.0200
6 H6        0.2158    -0.0447    -2.0875 H      1 <0>       0.1400
7 C7        2.1588    -0.0534    -1.1571 C.3    1 <0>      -0.1800
8 C8        0.6018    -2.0036    -1.2784 C.3    1 <0>      -0.1400
9 C9       -0.8593    -2.4226    -1.4534 C.3    1 <0>      -0.1000
10 C10      -1.3747    -1.9235    -2.8047 C.3    1 <0>      -0.1200
11 C11      -2.8357    -2.3425    -2.9797 C.3    1 <0>      -0.1200
12 C12      -2.9386    -3.8681    -2.9266 C.3    1 <0>      -0.1300
13 C13      -2.4233    -4.3672    -1.5753 C.3    1 <0>      -0.1200
14 C14      -0.9622    -3.9482    -1.4003 C.3    1 <0>      -0.1200
15 H15       1.0047     1.8421     0.0024 H      1 <0>       0.1300
16 H16      -0.5450     1.8259    -0.8730 H      1 <0>       0.1200
17 H17      -0.5280     1.8163     0.9069 H      1 <0>       0.1300
18 H18       2.6690    -0.4049    -2.0539 H      1 <0>       0.1100
19 H19       2.2214     1.0336    -1.1059 H      1 <0>       0.0800
20 H20       2.6326    -0.4864    -0.2761 H      1 <0>       0.0800
21 H21       1.1864    -2.3617    -2.1257 H      1 <0>       0.1100
22 H22       0.9954    -2.4339    -0.3575 H      1 <0>       0.0900
23 H23      -1.4597    -1.9899    -0.6532 H      1 <0>       0.0600
24 H24      -1.3013    -0.8366    -2.8426 H      1 <0>       0.0600
25 H25      -0.7742    -2.3562    -3.6049 H      1 <0>       0.0800
26 H26      -3.4361    -1.9097    -2.1795 H      1 <0>       0.0600
27 H27      -3.2029    -1.9869    -3.9425 H      1 <0>       0.0700
28 H28      -3.9795    -4.1666    -3.0513 H      1 <0>       0.0700
29 H29      -2.3382    -4.3008    -3.7268 H      1 <0>       0.0700
30 H30      -3.0237    -3.9345    -0.7751 H      1 <0>       0.0600
31 H31      -2.4966    -5.4541    -1.5374 H      1 <0>       0.0700
32 H32      -0.3618    -4.3810    -2.2005 H      1 <0>       0.0700
33 H33      -0.5950    -4.3038    -0.4375 H      1 <0>       0.0700
@<TRIPOS>BOND
1    1    2 1
2    1   15 1
3    1   16 1
4    1   17 1
5    2    3 1
6    2    4 1
7    2    5 1
8    5    6 1
9    5    7 1
10    5    8 1
11    7   18 1
12    7   19 1
13    7   20 1
14    8    9 1
15    8   21 1
16    8   22 1
17    9   14 1
18    9   10 1
19    9   23 1
20   10   11 1
21   10   24 1
22   10   25 1
23   11   12 1
24   11   26 1
25   11   27 1
26   12   13 1
27   12   28 1
28   12   29 1
29   13   14 1
30   13   30 1
31   13   31 1
32   14   32 1
33   14   33 1
