@<TRIPOS>MOLECULE
ZINC000003776875
12   11    0    0    0
SMALL
USER_CHARGES
NO_NAME
@<TRIPOS>ATOM
1 F1        0.0021    -0.0041     0.0020 F      1 <0>      -0.1900
2 C2       -0.0169     1.3948     0.0097 C.3    1 <0>       0.4100
3 F3        1.2956     1.8790    -0.0002 F      1 <0>      -0.2000
4 O4       -0.7080     1.8682    -1.1480 O.3    1 <0>      -0.3800
5 C5       -0.1178     1.4613    -2.3842 C.3    1 <0>       0.2100
6 H6        0.9027     1.8399    -2.4416 H      1 <0>       0.1400
7 F7       -0.1015     0.0642    -2.4556 F      1 <0>      -0.1700
8 C8       -0.9361     2.0220    -3.5490 C.3    1 <0>       0.4600
9 F9       -0.9524     3.4191    -3.4776 F      1 <0>      -0.1600
10 F10      -0.3583     1.6236    -4.7592 F      1 <0>      -0.1600
11 F11      -2.2459     1.5360    -3.4753 F      1 <0>      -0.1600
12 H12      -0.5271     1.7463     0.9065 H      1 <0>       0.1900
@<TRIPOS>BOND
1    1    2 1
2    2    3 1
3    2    4 1
4    2   12 1
5    4    5 1
6    5    6 1
7    5    7 1
8    5    8 1
9    8    9 1
10    8   10 1
11    8   11 1
