@<TRIPOS>MOLECULE
ZINC000003775644
27    29    1     0     0
SMALL
USER_CHARGES
@<TRIPOS>ATOM
1      N1     -0.0168    1.3886    0.0097 N.pl3    1 ZINC000003775644   -0.8700
2      C2      0.0021   -0.0041    0.0020 C.ar     1 ZINC000003775644    0.2500
3      C3     -1.1889   -0.6928    0.0040 C.ar     1 ZINC000003775644   -0.2300
4      C4     -1.1765   -2.1008   -0.0042 C.ar     1 ZINC000003775644    0.2300
5      N5     -2.3134   -2.7914   -0.0030 N.ar     1 ZINC000003775644   -0.5100
6      C6     -2.3170   -4.1216   -0.0111 C.ar     1 ZINC000003775644    0.2300
7      C7     -3.5288   -4.8387   -0.0102 C.ar     1 ZINC000003775644   -0.2300
8      C8     -3.5029   -6.2142   -0.0191 C.ar     1 ZINC000003775644    0.2500
9      N9     -4.7049   -6.9178   -0.0182 N.pl3    1 ZINC000003775644   -0.8700
10     C10    -2.2938   -6.9234   -0.0295 C.ar     1 ZINC000003775644   -0.1800
11     C11    -1.0978   -6.2837   -0.0303 C.ar     1 ZINC000003775644   -0.0400
12     C12    -1.0583   -4.8741   -0.0216 C.ar     1 ZINC000003775644   -0.1700
13     C13     0.1570   -4.1856   -0.0227 C.ar     1 ZINC000003775644    0.0000
14     C14     0.1183   -2.7894   -0.0146 C.ar     1 ZINC000003775644   -0.1700
15     C15     1.3047   -2.0270   -0.0157 C.ar     1 ZINC000003775644   -0.0400
16     C16     1.2341   -0.6726   -0.0133 C.ar     1 ZINC000003775644   -0.1800
17     H17     0.8165    1.8850    0.0044 H        1 ZINC000003775644    0.4000
18     H18    -0.8633    1.8621    0.0163 H        1 ZINC000003775644    0.4000
19     H19    -2.1267   -0.1573    0.0121 H        1 ZINC000003775644    0.1300
20     H20    -4.4720   -4.3126   -0.0023 H        1 ZINC000003775644    0.1300
21     H21    -5.5478   -6.4378   -0.0114 H        1 ZINC000003775644    0.4000
22     H22    -4.6991   -7.8877   -0.0244 H        1 ZINC000003775644    0.4000
23     H23    -2.3150   -8.0031   -0.0365 H        1 ZINC000003775644    0.1300
24     H24    -0.1793   -6.8517   -0.0381 H        1 ZINC000003775644    0.1300
25     H25     1.0976   -4.7164   -0.0305 H        1 ZINC000003775644    0.1400
26     H26     2.2657   -2.5198   -0.0227 H        1 ZINC000003775644    0.1300
27     H27     2.1475   -0.0963   -0.0143 H        1 ZINC000003775644    0.1300
@<TRIPOS>BOND
1     1     2     1
2     1     17    1
3     1     18    1
4     2     16    ar
5     2     3     ar
6     3     4     ar
7     3     19    1
8     4     14    ar
9     4     5     ar
10    5     6     ar
11    6     12    ar
12    6     7     ar
13    7     8     ar
14    7     20    1
15    8     9     1
16    8     10    ar
17    9     21    1
18    9     22    1
19    10    11    ar
20    10    23    1
21    11    12    ar
22    11    24    1
23    12    13    ar
24    13    14    ar
25    13    25    1
26    14    15    ar
27    15    16    ar
28    15    26    1
29    16    27    1
@<TRIPOS>SUBSTRUCTURE
1   ZINC000003775644 1     RESIDUE    1   A     ZIN   1
