@<TRIPOS>MOLECULE
ZINC000072316335
62    66    1     0     0
SMALL
USER_CHARGES
@<TRIPOS>ATOM
1      C1     -2.1592    0.5247    1.2531 C.3      1 ZINC000072316335    0.0900
2      N2     -2.1966   -0.8204    0.6741 N.am     1 ZINC000072316335   -0.6100
3      C3     -3.4632   -1.5536    0.6058 C.3      1 ZINC000072316335    0.0600
4      C4     -1.0659   -1.3835    0.2042 C.2      1 ZINC000072316335    0.5800
5      O5      0.0024   -0.8214    0.3564 O.2      1 ZINC000072316335   -0.5300
6      C6     -1.1232   -2.6758   -0.4915 C.2      1 ZINC000072316335    0.0100
7      C7     -2.2608   -3.3297   -0.8482 C.2      1 ZINC000072316335   -0.1200
8      C8     -1.8801   -4.5281   -1.4922 C.ar     1 ZINC000072316335   -0.2600
9      C9     -2.5797   -5.5945   -2.0694 C.ar     1 ZINC000072316335    0.2500
10     N10    -1.8923   -6.5879   -2.6017 N.ar     1 ZINC000072316335   -0.5100
11     C11    -0.5636   -6.5865   -2.5957 C.ar     1 ZINC000072316335    0.5800
12     N12     0.1068   -7.6536   -3.1677 N.pl3    1 ZINC000072316335   -0.6200
13     C13    -0.6079   -8.7561   -3.6358 C.ar     1 ZINC000072316335    0.3500
14     C14     0.0778   -9.8744   -4.0962 C.ar     1 ZINC000072316335   -0.1800
15     C15    -0.6401  -10.9627   -4.5584 C.ar     1 ZINC000072316335   -0.0700
16     C16    -2.0320  -10.8943   -4.5439 C.ar     1 ZINC000072316335    0.0200
17     N17    -2.7994  -11.9719   -5.0016 N.3      1 ZINC000072316335   -0.4800
18     C18    -2.4604  -13.2050   -4.2774 C.3      1 ZINC000072316335    0.0600
19     C19    -3.2612  -14.3720   -4.8598 C.3      1 ZINC000072316335    0.0600
20     N20    -4.6973  -14.0793   -4.7522 N.3      1 ZINC000072316335   -0.6900
21     C21    -5.0363  -12.8463   -5.4764 C.3      1 ZINC000072316335    0.0600
22     C22    -4.2355  -11.6792   -4.8940 C.3      1 ZINC000072316335    0.0500
23     C23    -2.6477   -9.7451   -4.0699 C.ar     1 ZINC000072316335    0.0900
24     N24    -1.9310   -8.7278   -3.6315 N.ar     1 ZINC000072316335   -0.4400
25     N25     0.1419   -5.6022   -2.0632 N.ar     1 ZINC000072316335   -0.5700
26     C26    -0.4668   -4.5615   -1.5046 C.ar     1 ZINC000072316335    0.3700
27     N27    -0.0269   -3.4206   -0.8946 N.pl3    1 ZINC000072316335   -0.4200
28     C28     1.3758   -3.0462   -0.6983 C.3      1 ZINC000072316335    0.1200
29     C29     2.0696   -4.0646    0.2298 C.3      1 ZINC000072316335   -0.1300
30     C30     2.7525   -5.0596   -0.7411 C.3      1 ZINC000072316335   -0.1300
31     C31     3.2502   -4.1372   -1.8815 C.3      1 ZINC000072316335   -0.1100
32     C32     2.1265   -3.0923   -2.0407 C.3      1 ZINC000072316335   -0.1300
33     H33    -3.1607    0.8094    1.5759 H        1 ZINC000072316335    0.0800
34     H34    -1.4853    0.5329    2.1098 H        1 ZINC000072316335    0.0700
35     H35    -1.8038    1.2328    0.5045 H        1 ZINC000072316335    0.0600
36     H36    -3.9108   -1.4145   -0.3783 H        1 ZINC000072316335    0.0700
37     H37    -3.2784   -2.6145    0.7743 H        1 ZINC000072316335    0.0900
38     H38    -4.1426   -1.1771    1.3705 H        1 ZINC000072316335    0.0800
39     H39    -3.2719   -2.9939   -0.6711 H        1 ZINC000072316335    0.1800
40     H40    -3.6596   -5.6045   -2.0787 H        1 ZINC000072316335    0.1700
41     H41     1.0737   -7.6347   -3.2432 H        1 ZINC000072316335    0.4300
42     H42     1.1577   -9.8930   -4.0934 H        1 ZINC000072316335    0.1400
43     H43    -0.1339  -11.8446   -4.9222 H        1 ZINC000072316335    0.1400
44     H44    -1.3945  -13.4071   -4.3825 H        1 ZINC000072316335    0.0800
45     H45    -2.7061  -13.0861   -3.2222 H        1 ZINC000072316335    0.0500
46     H46    -2.9954  -14.5082   -5.9081 H        1 ZINC000072316335    0.0400
47     H47    -3.0331  -15.2822   -4.3053 H        1 ZINC000072316335    0.0800
48     H48    -5.2504  -14.8560   -5.0821 H        1 ZINC000072316335    0.3500
49     H49    -4.7906  -12.9651   -6.5317 H        1 ZINC000072316335    0.0400
50     H50    -6.1022  -12.6442   -5.3714 H        1 ZINC000072316335    0.0900
51     H51    -4.5013  -11.5431   -3.8457 H        1 ZINC000072316335    0.0600
52     H52    -4.4636  -10.7690   -5.4486 H        1 ZINC000072316335    0.0900
53     H53    -3.7258   -9.6842   -4.0554 H        1 ZINC000072316335    0.1600
54     H54     1.4385   -2.0461   -0.2695 H        1 ZINC000072316335    0.1300
55     H55     2.8135   -3.5680    0.8528 H        1 ZINC000072316335    0.0800
56     H56     1.3345   -4.5793    0.8487 H        1 ZINC000072316335    0.0700
57     H57     3.5904   -5.5598   -0.2554 H        1 ZINC000072316335    0.0600
58     H58     2.0333   -5.7865   -1.1184 H        1 ZINC000072316335    0.1000
59     H59     4.1848   -3.6522   -1.5996 H        1 ZINC000072316335    0.0600
60     H60     3.3768   -4.7047   -2.8035 H        1 ZINC000072316335    0.0700
61     H61     1.4471   -3.3932   -2.8382 H        1 ZINC000072316335    0.0700
62     H62     2.5543   -2.1148   -2.2630 H        1 ZINC000072316335    0.0700
@<TRIPOS>BOND
1     1     2     1
2     1     33    1
3     1     34    1
4     1     35    1
5     2     3     1
6     2     4     am
7     3     36    1
8     3     37    1
9     3     38    1
10    4     5     2
11    4     6     1
12    6     27    1
13    6     7     2
14    7     8     1
15    7     39    1
16    8     26    ar
17    8     9     ar
18    9     10    ar
19    9     40    1
20    10    11    ar
21    11    12    1
22    11    25    ar
23    12    13    1
24    12    41    1
25    13    24    ar
26    13    14    ar
27    14    15    ar
28    14    42    1
29    15    16    ar
30    15    43    1
31    16    17    1
32    16    23    ar
33    17    22    1
34    17    18    1
35    18    19    1
36    18    44    1
37    18    45    1
38    19    20    1
39    19    46    1
40    19    47    1
41    20    21    1
42    20    48    1
43    21    22    1
44    21    49    1
45    21    50    1
46    22    51    1
47    22    52    1
48    23    24    ar
49    23    53    1
50    25    26    ar
51    26    27    1
52    27    28    1
53    28    32    1
54    28    29    1
55    28    54    1
56    29    30    1
57    29    55    1
58    29    56    1
59    30    31    1
60    30    57    1
61    30    58    1
62    31    32    1
63    31    59    1
64    31    60    1
65    32    61    1
66    32    62    1
@<TRIPOS>SUBSTRUCTURE
1   ZINC000072316335 1     RESIDUE    1   A     ZIN   1
