@<TRIPOS>MOLECULE
ZINC000013520815
44    47    1     0     0
SMALL
USER_CHARGES
@<TRIPOS>ATOM
1      C1     -0.0187    1.5258    0.0104 C.3      1 ZINC000013520815   -0.1400
2      C2      0.0021   -0.0041    0.0020 C.3      1 ZINC000013520815   -0.0600
3      C3     -1.4143   -0.5426    0.0483 C.3      1 ZINC000013520815   -0.1000
4      C4     -2.0972    0.0441    1.2983 C.3      1 ZINC000013520815   -0.1100
5      C5     -1.3127   -0.3075    2.5539 C.3      1 ZINC000013520815   -0.0400
6      H6     -1.3076   -1.3930    2.6527 H        1 ZINC000013520815    0.0800
7      C7     -1.9429    0.2647    3.7897 C.ar     1 ZINC000013520815   -0.0800
8      C8     -3.3275    0.3468    3.8442 C.ar     1 ZINC000013520815   -0.1000
9      C9     -3.9582    0.8545    4.9604 C.ar     1 ZINC000013520815   -0.1500
10     C10    -3.2013    1.2865    6.0396 C.ar     1 ZINC000013520815    0.1000
11     O11    -3.8126    1.7840    7.1466 O.3      1 ZINC000013520815   -0.5000
12     C12    -1.8202    1.2081    5.9838 C.ar     1 ZINC000013520815   -0.1500
13     C13    -1.1861    0.7012    4.8580 C.ar     1 ZINC000013520815   -0.0600
14     C14     0.3196    0.6670    4.8604 C.3      1 ZINC000013520815   -0.0800
15     C15     0.8556   -0.2332    3.7478 C.3      1 ZINC000013520815   -0.1100
16     C16     0.1443    0.1629    2.4540 C.3      1 ZINC000013520815   -0.0700
17     H17     0.1919    1.2441    2.3243 H        1 ZINC000013520815    0.0900
18     C18     0.7512   -0.5345    1.2564 C.3      1 ZINC000013520815   -0.0800
19     H19     0.6025   -1.6110    1.3412 H        1 ZINC000013520815    0.0700
20     C20     2.2157   -0.2374    0.9541 C.3      1 ZINC000013520815   -0.1100
21     C21     2.3338   -0.2868   -0.5898 C.3      1 ZINC000013520815   -0.1600
22     C22     0.8996   -0.5108   -1.1315 C.3      1 ZINC000013520815    0.1100
23     H23     0.7111   -1.5715   -1.2973 H        1 ZINC000013520815    0.0600
24     O24     0.6918    0.2320   -2.3346 O.3      1 ZINC000013520815   -0.5600
25     H25     1.0039    1.9031    0.0027 H        1 ZINC000013520815    0.0500
26     H26    -0.5459    1.8868   -0.8726 H        1 ZINC000013520815    0.0600
27     H27    -0.5289    1.8773    0.9072 H        1 ZINC000013520815    0.0600
28     H28    -1.9557   -0.2361   -0.8467 H        1 ZINC000013520815    0.0700
29     H29    -1.3941   -1.6304    0.1145 H        1 ZINC000013520815    0.0600
30     H30    -2.1530    1.1284    1.2015 H        1 ZINC000013520815    0.0700
31     H31    -3.1059   -0.3608    1.3799 H        1 ZINC000013520815    0.0700
32     H32    -3.9166    0.0102    3.0039 H        1 ZINC000013520815    0.1300
33     H33    -5.0359    0.9158    4.9940 H        1 ZINC000013520815    0.1300
34     H34    -4.0214    1.1163    7.8143 H        1 ZINC000013520815    0.3900
35     H35    -1.2309    1.5444    6.8241 H        1 ZINC000013520815    0.1300
36     H36     0.6998    1.6782    4.7159 H        1 ZINC000013520815    0.0800
37     H37     0.6665    0.2904    5.8226 H        1 ZINC000013520815    0.0800
38     H38     1.9300   -0.0844    3.6399 H        1 ZINC000013520815    0.0700
39     H39     0.6505   -1.2764    3.9879 H        1 ZINC000013520815    0.0700
40     H40     2.4838    0.7531    1.3218 H        1 ZINC000013520815    0.0700
41     H41     2.8558   -0.9949    1.4062 H        1 ZINC000013520815    0.0700
42     H42     2.7245    0.6588   -0.9656 H        1 ZINC000013520815    0.0700
43     H43     2.9863   -1.1071   -0.8889 H        1 ZINC000013520815    0.0700
44     H44     1.2809   -0.0198   -3.0589 H        1 ZINC000013520815    0.3800
@<TRIPOS>BOND
1     1     2     1
2     1     25    1
3     1     26    1
4     1     27    1
5     2     18    1
6     2     22    1
7     2     3     1
8     3     4     1
9     3     28    1
10    3     29    1
11    4     5     1
12    4     30    1
13    4     31    1
14    5     6     1
15    5     16    1
16    5     7     1
17    7     13    ar
18    7     8     ar
19    8     9     ar
20    8     32    1
21    9     10    ar
22    9     33    1
23    10    11    1
24    10    12    ar
25    11    34    1
26    12    13    ar
27    12    35    1
28    13    14    1
29    14    15    1
30    14    36    1
31    14    37    1
32    15    16    1
33    15    38    1
34    15    39    1
35    16    17    1
36    16    18    1
37    18    19    1
38    18    20    1
39    20    21    1
40    20    40    1
41    20    41    1
42    21    22    1
43    21    42    1
44    21    43    1
45    22    23    1
46    22    24    1
47    24    44    1
@<TRIPOS>SUBSTRUCTURE
1   ZINC000013520815 1     RESIDUE    1   A     ZIN   1
