@<TRIPOS>MOLECULE
ZINC000028973441
32   34    0    0    0
SMALL
USER_CHARGES
NO_NAME
@<TRIPOS>ATOM
1 O1        0.3510     0.0464     0.1190 O.co2  1 <0>      -0.6600
2 C2        0.2136     1.2577     0.1018 C.2    1 <0>       0.4900
3 O3        1.1804     1.9833     0.2610 O.co2  1 <0>      -0.6400
4 C4       -1.1503     1.8582    -0.1226 C.3    1 <0>      -0.0300
5 H5       -1.7453     1.1902    -0.7454 H      1 <0>       0.1300
6 N6       -1.0119     3.1535    -0.7870 N.2    1 <0>      -0.4700
7 C7       -0.2958     4.0987    -0.2895 C.2    1 <0>       0.2500
8 C8       -0.2291     5.3750    -1.0390 C.ar   1 <0>      -0.0500
9 C9       -0.4856     5.3962    -2.4097 C.ar   1 <0>      -0.0700
10 C10      -0.4218     6.5879    -3.1023 C.ar   1 <0>      -0.1300
11 C11      -0.1042     7.7601    -2.4397 C.ar   1 <0>      -0.1100
12 C12       0.1512     7.7455    -1.0801 C.ar   1 <0>      -0.1300
13 C13       0.0849     6.5609    -0.3755 C.ar   1 <0>      -0.1000
14 C14       0.4618     4.0078     0.9685 C.ar   1 <0>       0.0000
15 C15       1.7393     4.5869     1.0015 C.ar   1 <0>      -0.0600
16 C16       2.5015     4.5342     2.1469 C.ar   1 <0>      -0.0400
17 Cl17      4.0804     5.2554     2.1727 Cl     1 <0>      -0.0800
18 C18       2.0082     3.9060     3.2793 C.ar   1 <0>      -0.1000
19 C19       0.7548     3.3344     3.2619 C.ar   1 <0>      -0.1200
20 C20      -0.0322     3.3786     2.1096 C.ar   1 <0>       0.1600
21 N21      -1.2846     2.7863     2.1710 N.am   1 <0>      -0.6600
22 C22      -1.8368     2.0578     1.2010 C.2    1 <0>       0.5400
23 O23      -2.9208     1.5476     1.3898 O.2    1 <0>      -0.5400
24 H24      -0.7333     4.4817    -2.9281 H      1 <0>       0.1300
25 H25      -0.6199     6.6056    -4.1638 H      1 <0>       0.1200
26 H26      -0.0552     8.6904    -2.9861 H      1 <0>       0.1200
27 H27       0.3990     8.6637    -0.5683 H      1 <0>       0.1200
28 H28       0.2846     6.5506     0.6858 H      1 <0>       0.1300
29 H29       2.1280     5.0775     0.1213 H      1 <0>       0.1300
30 H30       2.6074     3.8641     4.1769 H      1 <0>       0.1300
31 H31       0.3774     2.8467     4.1485 H      1 <0>       0.1300
32 H32      -1.7987     2.9107     2.9841 H      1 <0>       0.4000
@<TRIPOS>BOND
1    1    2 ar
2    2    3 ar
3    2    4 1
4    4    5 1
5    4   22 1
6    4    6 1
7    6    7 2
8    7    8 1
9    7   14 1
10    8   13 ar
11    8    9 ar
12    9   10 ar
13    9   24 1
14   10   11 ar
15   10   25 1
16   11   12 ar
17   11   26 1
18   12   13 ar
19   12   27 1
20   13   28 1
21   14   20 ar
22   14   15 ar
23   15   16 ar
24   15   29 1
25   16   17 1
26   16   18 ar
27   18   19 ar
28   18   30 1
29   19   20 ar
30   19   31 1
31   20   21 1
32   21   22 am
33   21   32 1
34   22   23 2
