@<TRIPOS>MOLECULE
ZINC000006827693
6    5    0    0    0
SMALL
USER_CHARGES
NO_NAME
@<TRIPOS>ATOM
1 O1        0.0021    -0.0041     0.0020 O.2    1 <0>      -0.5600
2 C2       -0.0144     1.2101     0.0087 C.2    1 <0>       0.6400
3 O3        1.1414     1.8986     0.0014 O.3    1 <0>      -0.4800
4 O4       -1.1885     1.8669     0.0178 O.3    1 <0>      -0.4800
5 H5        1.9594     1.3830    -0.0092 H      1 <0>       0.4400
6 H6       -1.9922     1.3292     0.0187 H      1 <0>       0.4400
@<TRIPOS>BOND
1    1    2 2
2    2    3 1
3    2    4 1
4    3    5 1
5    4    6 1
