@<TRIPOS>MOLECULE
ZINC000003922770
51    53    1     0     0
SMALL
USER_CHARGES
@<TRIPOS>ATOM
1      C1     -0.0346    1.6120    2.0982 C.3      1 ZINC000003922770   -0.1900
2      C2     -0.0657    0.0869    1.9790 C.3      1 ZINC000003922770    0.1200
3      H3      0.7611   -0.2453    1.3512 H        1 ZINC000003922770    0.0600
4      O4      0.0589   -0.4951    3.2781 O.3      1 ZINC000003922770   -0.5600
5      C5     -1.3907   -0.3486    1.3500 C.3      1 ZINC000003922770   -0.1600
6      H6     -2.2583    0.0952    1.8382 H        1 ZINC000003922770    0.1400
7      C7     -1.4154   -0.2310   -0.1601 C.2      1 ZINC000003922770    0.5200
8      O8     -1.3207    0.6963   -0.9366 O.2      1 ZINC000003922770   -0.4100
9      N9     -1.5853   -1.5751   -0.3043 N.am     1 ZINC000003922770   -0.4800
10     C10    -2.8174   -2.0410   -0.7931 C.2      1 ZINC000003922770    0.1600
11     C11    -3.1859   -1.9920   -2.1532 C.2      1 ZINC000003922770    0.4400
12     O12    -4.3294   -2.5472   -2.5543 O.co2    1 ZINC000003922770   -0.6600
13     O13    -2.3907   -1.3905   -3.0379 O.co2    1 ZINC000003922770   -0.6500
14     C14    -3.6108   -2.5406    0.1781 C.2      1 ZINC000003922770   -0.2400
15     S15    -5.2310   -3.1926   -0.0551 S.3      1 ZINC000003922770    0.0600
16     C16    -4.9404   -4.9230    0.3891 C.3      1 ZINC000003922770   -0.1400
17     H17    -4.3671   -4.9958    1.3132 H        1 ZINC000003922770    0.1200
18     C18    -4.2345   -5.6806   -0.7630 C.3      1 ZINC000003922770    0.0000
19     N19    -4.6006   -7.0989   -0.5624 N.4      1 ZINC000003922770   -0.5200
20     H20    -4.7242   -7.5476   -1.4577 H        1 ZINC000003922770    0.4300
21     H21    -3.8725   -7.5675   -0.0445 H        1 ZINC000003922770    0.4300
22     C22    -5.8620   -7.1549    0.1990 C.3      1 ZINC000003922770    0.0300
23     H23    -5.7085   -7.6982    1.1314 H        1 ZINC000003922770    0.1500
24     C24    -6.9427   -7.8467   -0.6344 C.3      1 ZINC000003922770    0.0900
25     N25    -6.4771   -9.1784   -1.0293 N.am     1 ZINC000003922770   -1.1400
26     S26    -7.5544  -10.2932   -1.6114 S.o2     1 ZINC000003922770    2.8000
27     N27    -8.1412   -9.7062   -3.0444 N.am     1 ZINC000003922770   -1.2600
28     O28    -6.7980  -11.4526   -1.9324 O.2      1 ZINC000003922770   -0.9700
29     O29    -8.6485  -10.3055   -0.7047 O.2      1 ZINC000003922770   -0.9700
30     C30    -6.2785   -5.6999    0.5026 C.3      1 ZINC000003922770   -0.1100
31     C31    -2.8807   -2.4493    1.4981 C.3      1 ZINC000003922770   -0.0500
32     H32    -2.7695   -3.4394    1.9401 H        1 ZINC000003922770    0.0900
33     C33    -3.6266   -1.5191    2.4569 C.3      1 ZINC000003922770   -0.1500
34     C34    -1.5070   -1.8647    1.1447 C.3      1 ZINC000003922770    0.0800
35     H35    -0.6576   -2.4643    1.4719 H        1 ZINC000003922770    0.1400
36     H36     0.9093    1.9222    2.5463 H        1 ZINC000003922770    0.0700
37     H37    -0.1297    2.0559    1.1072 H        1 ZINC000003922770    0.0700
38     H38    -0.8614    1.9442    2.7260 H        1 ZINC000003922770    0.0700
39     H39     0.8774   -0.2614    3.7369 H        1 ZINC000003922770    0.3800
40     H40    -4.5981   -5.3277   -1.7281 H        1 ZINC000003922770    0.1600
41     H41    -3.1540   -5.5542   -0.6943 H        1 ZINC000003922770    0.1400
42     H42    -7.8532   -7.9408   -0.0426 H        1 ZINC000003922770    0.1300
43     H43    -7.1486   -7.2545   -1.5260 H        1 ZINC000003922770    0.1000
44     H44    -5.5379   -9.4071   -0.9498 H        1 ZINC000003922770    0.4200
45     H45    -7.8332   -8.8499   -3.3802 H        1 ZINC000003922770    0.4200
46     H46    -8.7929  -10.2186   -3.5479 H        1 ZINC000003922770    0.4300
47     H47    -6.6884   -5.6184    1.5093 H        1 ZINC000003922770    0.1200
48     H48    -6.9951   -5.3419   -0.2366 H        1 ZINC000003922770    0.1100
49     H49    -4.5716   -1.9782    2.7470 H        1 ZINC000003922770    0.0700
50     H50    -3.0178   -1.3486    3.3449 H        1 ZINC000003922770    0.0700
51     H51    -3.8217   -0.5677    1.9620 H        1 ZINC000003922770    0.0600
@<TRIPOS>BOND
1     1     2     1
2     1     36    1
3     1     37    1
4     1     38    1
5     2     3     1
6     2     4     1
7     2     5     1
8     4     39    1
9     5     6     1
10    5     34    1
11    5     7     1
12    7     8     2
13    7     9     am
14    9     34    1
15    9     10    1
16    10    11    1
17    10    14    2
18    11    12    ar
19    11    13    ar
20    14    15    1
21    14    31    1
22    15    16    1
23    16    17    1
24    16    30    1
25    16    18    1
26    18    19    1
27    18    40    1
28    18    41    1
29    19    20    1
30    19    21    1
31    19    22    1
32    22    23    1
33    22    24    1
34    22    30    1
35    24    25    1
36    24    42    1
37    24    43    1
38    25    26    am
39    25    44    1
40    26    27    am
41    26    28    2
42    26    29    2
43    27    45    1
44    27    46    1
45    30    47    1
46    30    48    1
47    31    32    1
48    31    33    1
49    31    34    1
50    33    49    1
51    33    50    1
52    33    51    1
53    34    35    1
@<TRIPOS>SUBSTRUCTURE
1   ZINC000003922770 1     RESIDUE    1   A     ZIN   1
