@<TRIPOS>MOLECULE
ZINC000003873936
67    71    1     0     0
SMALL
USER_CHARGES
@<TRIPOS>ATOM
1      C1     -1.0096    1.3647   -2.6923 C.3      1 ZINC000003873936   -0.1500
2      C2     -0.9296   -0.1535   -2.5205 C.3      1 ZINC000003873936    0.0800
3      C3      0.0165   -0.4869   -1.3652 C.3      1 ZINC000003873936   -0.1900
4      N4     -2.2674   -0.6842   -2.2265 N.3      1 ZINC000003873936   -0.5300
5      C5     -2.8441   -0.0324   -1.0424 C.3      1 ZINC000003873936    0.0500
6      C6     -4.2651   -0.5543   -0.8173 C.3      1 ZINC000003873936    0.0500
7      N7     -4.2269   -2.0133   -0.6456 N.3      1 ZINC000003873936   -0.4900
8      C8     -5.5013   -2.5189   -0.3655 C.ar     1 ZINC000003873936    0.0800
9      C9     -6.5888   -1.6587   -0.2903 C.ar     1 ZINC000003873936   -0.1300
10     C10    -7.8464   -2.1586   -0.0143 C.ar     1 ZINC000003873936   -0.1200
11     C11    -8.0231   -3.5193    0.1881 C.ar     1 ZINC000003873936    0.1100
12     O12    -9.2617   -4.0107    0.4603 O.3      1 ZINC000003873936   -0.3000
13     C13    -9.3709   -5.4218    0.6577 C.3      1 ZINC000003873936    0.0700
14     C14   -10.8282   -5.7845    0.9505 C.3      1 ZINC000003873936    0.0400
15     H15   -11.4833   -5.4046    0.1666 H        1 ZINC000003873936    0.1000
16     C16   -10.9904   -7.3174    1.1046 C.3      1 ZINC000003873936    0.0200
17     O17   -12.1573   -7.4055    1.9571 O.3      1 ZINC000003873936   -0.3500
18     C18   -12.0390   -6.2918    2.8584 C.3      1 ZINC000003873936    0.2900
19     C19   -11.3829   -6.7526    4.1615 C.3      1 ZINC000003873936    0.1100
20     N20   -11.1996   -5.6019    5.0495 N.pl3    1 ZINC000003873936   -0.3800
21     C21   -11.6243   -5.4889    6.3199 C.2      1 ZINC000003873936    0.2400
22     N22   -11.2633   -4.3130    6.7656 N.2      1 ZINC000003873936   -0.5300
23     C23   -10.6092   -3.6499    5.8128 C.2      1 ZINC000003873936    0.1900
24     N24   -10.5400   -4.4001    4.7447 N.2      1 ZINC000003873936   -0.2700
25     C25   -13.4063   -5.7299    3.1512 C.ar     1 ZINC000003873936   -0.0900
26     C26   -13.9202   -5.7952    4.4324 C.ar     1 ZINC000003873936   -0.0800
27     C27   -15.1746   -5.2803    4.7017 C.ar     1 ZINC000003873936   -0.1000
28     C28   -15.9160   -4.6990    3.6887 C.ar     1 ZINC000003873936   -0.0100
29     Cl29  -17.4910   -4.0520    4.0271 Cl       1 ZINC000003873936   -0.0500
30     C30   -15.4019   -4.6330    2.4059 C.ar     1 ZINC000003873936   -0.1100
31     C31   -14.1447   -5.1436    2.1383 C.ar     1 ZINC000003873936    0.0100
32     Cl32  -13.4985   -5.0606    0.5292 Cl       1 ZINC000003873936   -0.0400
33     O33   -11.2299   -5.2789    2.2398 O.3      1 ZINC000003873936   -0.3100
34     C34    -6.9375   -4.3793    0.1127 C.ar     1 ZINC000003873936   -0.1800
35     C35    -5.6802   -3.8818   -0.1684 C.ar     1 ZINC000003873936   -0.1000
36     C36    -3.6502   -2.6652   -1.8297 C.3      1 ZINC000003873936    0.0600
37     C37    -2.2292   -2.1432   -2.0548 C.3      1 ZINC000003873936    0.0500
38     H38    -0.0169    1.7585   -2.9105 H        1 ZINC000003873936    0.0600
39     H39    -1.6837    1.6022   -3.5154 H        1 ZINC000003873936    0.0600
40     H40    -1.3853    1.8150   -1.7735 H        1 ZINC000003873936    0.0600
41     H41    -0.5539   -0.6038   -3.4393 H        1 ZINC000003873936    0.0800
42     H42     1.0092   -0.0931   -1.5834 H        1 ZINC000003873936    0.0600
43     H43    -0.3592   -0.0365   -0.4464 H        1 ZINC000003873936    0.0600
44     H44     0.0735   -1.5685   -1.2428 H        1 ZINC000003873936    0.0600
45     H45    -2.2316   -0.2571   -0.1692 H        1 ZINC000003873936    0.0500
46     H46    -2.8733    1.0459   -1.1989 H        1 ZINC000003873936    0.0900
47     H47    -4.6843   -0.0937    0.0773 H        1 ZINC000003873936    0.0900
48     H48    -4.8846   -0.3057   -1.6790 H        1 ZINC000003873936    0.0500
49     H49    -6.4513   -0.5991   -0.4472 H        1 ZINC000003873936    0.1300
50     H50    -8.6923   -1.4898    0.0442 H        1 ZINC000003873936    0.1300
51     H51    -9.0410   -5.9411   -0.2421 H        1 ZINC000003873936    0.0800
52     H52    -8.7460   -5.7204    1.4993 H        1 ZINC000003873936    0.0700
53     H53   -11.1757   -7.7891    0.1395 H        1 ZINC000003873936    0.1200
54     H54   -10.1184   -7.7553    1.5902 H        1 ZINC000003873936    0.0900
55     H55   -12.0212   -7.4897    4.6489 H        1 ZINC000003873936    0.1200
56     H56   -10.4135   -7.2001    3.9418 H        1 ZINC000003873936    0.1000
57     H57   -12.1690   -6.2379    6.8755 H        1 ZINC000003873936    0.2200
58     H58   -10.1989   -2.6555    5.9090 H        1 ZINC000003873936    0.2200
59     H59   -13.3417   -6.2489    5.2235 H        1 ZINC000003873936    0.1400
60     H60   -15.5760   -5.3323    5.7030 H        1 ZINC000003873936    0.1500
61     H61   -15.9803   -4.1792    1.6148 H        1 ZINC000003873936    0.1500
62     H62    -7.0760   -5.4387    0.2705 H        1 ZINC000003873936    0.1300
63     H63    -4.8349   -4.5515   -0.2270 H        1 ZINC000003873936    0.1300
64     H64    -3.6211   -3.7435   -1.6732 H        1 ZINC000003873936    0.0800
65     H65    -4.2627   -2.4405   -2.7029 H        1 ZINC000003873936    0.0500
66     H66    -1.8101   -2.6038   -2.9494 H        1 ZINC000003873936    0.0800
67     H67    -1.6097   -2.3919   -1.1931 H        1 ZINC000003873936    0.0500
@<TRIPOS>BOND
1     1     2     1
2     1     38    1
3     1     39    1
4     1     40    1
5     2     3     1
6     2     4     1
7     2     41    1
8     3     42    1
9     3     43    1
10    3     44    1
11    4     37    1
12    4     5     1
13    5     6     1
14    5     45    1
15    5     46    1
16    6     7     1
17    6     47    1
18    6     48    1
19    7     8     1
20    7     36    1
21    8     35    ar
22    8     9     ar
23    9     10    ar
24    9     49    1
25    10    11    ar
26    10    50    1
27    11    12    1
28    11    34    ar
29    12    13    1
30    13    14    1
31    13    51    1
32    13    52    1
33    14    15    1
34    14    33    1
35    14    16    1
36    16    17    1
37    16    53    1
38    16    54    1
39    17    18    1
40    18    19    1
41    18    25    1
42    18    33    1
43    19    20    1
44    19    55    1
45    19    56    1
46    20    24    1
47    20    21    1
48    21    22    2
49    21    57    1
50    22    23    1
51    23    24    2
52    23    58    1
53    25    31    ar
54    25    26    ar
55    26    27    ar
56    26    59    1
57    27    28    ar
58    27    60    1
59    28    29    1
60    28    30    ar
61    30    31    ar
62    30    61    1
63    31    32    1
64    34    35    ar
65    34    62    1
66    35    63    1
67    36    37    1
68    36    64    1
69    36    65    1
70    37    66    1
71    37    67    1
@<TRIPOS>SUBSTRUCTURE
1   ZINC000003873936 1     RESIDUE    1   A     ZIN   1
