@<TRIPOS>MOLECULE
ZINC000012503187
65    70    1     0     0
SMALL
USER_CHARGES
@<TRIPOS>ATOM
1      C1     -7.0054   -6.0930    2.7596 C.3      1 ZINC000012503187   -0.1100
2      C2     -5.8406   -5.2078    2.3978 C.cat    1 ZINC000012503187    0.3200
3      N3     -5.8292   -4.3262    1.4320 N.pl3    1 ZINC000012503187   -0.4600
4      H4     -6.5689   -4.1360    0.8340 H        1 ZINC000012503187    0.4600
5      C5     -4.6328   -3.7293    1.4021 C.2      1 ZINC000012503187    0.0700
6      C6     -3.8728   -4.2597    2.4061 C.2      1 ZINC000012503187    0.0800
7      C7     -2.4658   -3.8246    2.7092 C.3      1 ZINC000012503187   -0.0700
8      C8     -1.5200   -4.2870    1.5937 C.3      1 ZINC000012503187    0.1100
9      N9     -2.1432   -4.0593    0.2856 N.am     1 ZINC000012503187   -0.5800
10     C10    -2.0649   -5.0290   -0.6471 C.2      1 ZINC000012503187    0.5700
11     O11    -1.4073   -6.0289   -0.4310 O.2      1 ZINC000012503187   -0.5100
12     C12    -2.7770   -4.8775   -1.9306 C.ar     1 ZINC000012503187   -0.1600
13     C13    -2.1463   -5.2294   -3.1273 C.ar     1 ZINC000012503187   -0.0400
14     C14    -2.8137   -5.0872   -4.3228 C.ar     1 ZINC000012503187   -0.1200
15     C15    -4.1145   -4.5934   -4.3409 C.ar     1 ZINC000012503187    0.1900
16     N16    -4.7872   -4.4507   -5.5529 N.am     1 ZINC000012503187   -0.6700
17     C17    -4.1016   -4.1449   -6.6722 C.2      1 ZINC000012503187    0.5600
18     O18    -2.9124   -3.8999   -6.6088 O.2      1 ZINC000012503187   -0.4800
19     C19    -4.7943   -4.1074   -7.9748 C.ar     1 ZINC000012503187   -0.1400
20     C20    -5.9165   -4.9059   -8.1963 C.ar     1 ZINC000012503187   -0.0900
21     C21    -6.5602   -4.8669   -9.4160 C.ar     1 ZINC000012503187   -0.1200
22     C22    -6.0991   -4.0388  -10.4257 C.ar     1 ZINC000012503187   -0.0800
23     C23    -4.9897   -3.2418  -10.2247 C.ar     1 ZINC000012503187   -0.1100
24     C24    -4.3306   -3.2620   -8.9992 C.ar     1 ZINC000012503187    0.0200
25     C25    -3.1398   -2.4079   -8.7790 C.ar     1 ZINC000012503187   -0.0500
26     C26    -3.1108   -1.5087   -7.7137 C.ar     1 ZINC000012503187   -0.0800
27     C27    -1.9989   -0.7163   -7.5134 C.ar     1 ZINC000012503187   -0.1200
28     C28    -0.9147   -0.8126   -8.3672 C.ar     1 ZINC000012503187   -0.1100
29     C29    -0.9377   -1.7029   -9.4258 C.ar     1 ZINC000012503187   -0.1200
30     C30    -2.0417   -2.5045   -9.6328 C.ar     1 ZINC000012503187   -0.1000
31     C31    -4.7453   -4.2421   -3.1513 C.ar     1 ZINC000012503187   -0.1600
32     C32    -4.0857   -4.3872   -1.9518 C.ar     1 ZINC000012503187   -0.0700
33     C33    -2.8136   -2.8791   -0.0297 C.ar     1 ZINC000012503187    0.1700
34     C34    -2.2526   -1.9082   -0.8376 C.ar     1 ZINC000012503187   -0.1000
35     C35    -2.9775   -0.7719   -1.1513 C.ar     1 ZINC000012503187   -0.0700
36     C36    -4.2597   -0.5975   -0.6619 C.ar     1 ZINC000012503187   -0.1000
37     C37    -4.8276   -1.5518    0.1633 C.ar     1 ZINC000012503187   -0.0800
38     C38    -4.1071   -2.6881    0.4879 C.ar     1 ZINC000012503187   -0.0700
39     N39    -4.6399   -5.1939    3.0248 N.pl3    1 ZINC000012503187   -0.4900
40     H40    -7.6323   -5.5866    3.4936 H        1 ZINC000012503187    0.1300
41     H41    -7.5918   -6.3053    1.8657 H        1 ZINC000012503187    0.1200
42     H42    -6.6346   -7.0272    3.1812 H        1 ZINC000012503187    0.1200
43     H43    -2.4318   -2.7378    2.7846 H        1 ZINC000012503187    0.1200
44     H44    -2.1485   -4.2611    3.6562 H        1 ZINC000012503187    0.1200
45     H45    -0.5877   -3.7254    1.6533 H        1 ZINC000012503187    0.1000
46     H46    -1.3096   -5.3497    1.7145 H        1 ZINC000012503187    0.1100
47     H47    -1.1365   -5.6121   -3.1140 H        1 ZINC000012503187    0.1400
48     H48    -2.3269   -5.3590   -5.2479 H        1 ZINC000012503187    0.1500
49     H49    -5.7489   -4.5716   -5.5910 H        1 ZINC000012503187    0.4100
50     H50    -6.2811   -5.5545   -7.4135 H        1 ZINC000012503187    0.1300
51     H51    -7.4288   -5.4862   -9.5845 H        1 ZINC000012503187    0.1300
52     H52    -6.6105   -4.0165  -11.3767 H        1 ZINC000012503187    0.1300
53     H53    -4.6361   -2.5990  -11.0173 H        1 ZINC000012503187    0.1400
54     H54    -3.9569   -1.4322   -7.0469 H        1 ZINC000012503187    0.1100
55     H55    -1.9752   -0.0194   -6.6887 H        1 ZINC000012503187    0.1200
56     H56    -0.0469   -0.1899   -8.2069 H        1 ZINC000012503187    0.1200
57     H57    -0.0883   -1.7736  -10.0891 H        1 ZINC000012503187    0.1200
58     H58    -2.0584   -3.1995  -10.4593 H        1 ZINC000012503187    0.1200
59     H59    -5.7550   -3.8591   -3.1687 H        1 ZINC000012503187    0.1300
60     H60    -4.5758   -4.1145   -1.0288 H        1 ZINC000012503187    0.1200
61     H61    -1.2516   -2.0357   -1.2225 H        1 ZINC000012503187    0.1400
62     H62    -2.5383   -0.0144   -1.7836 H        1 ZINC000012503187    0.1400
63     H63    -4.8197    0.2878   -0.9248 H        1 ZINC000012503187    0.1400
64     H64    -5.8258   -1.4112    0.5508 H        1 ZINC000012503187    0.1300
65     H65    -4.3752   -5.7519    3.7727 H        1 ZINC000012503187    0.4600
@<TRIPOS>BOND
1     1     2     1
2     1     40    1
3     1     41    1
4     1     42    1
5     2     39    ar
6     2     3     ar
7     3     4     1
8     3     5     1
9     5     38    1
10    5     6     2
11    6     7     1
12    6     39    1
13    7     8     1
14    7     43    1
15    7     44    1
16    8     9     1
17    8     45    1
18    8     46    1
19    9     10    am
20    9     33    1
21    10    11    2
22    10    12    1
23    12    32    ar
24    12    13    ar
25    13    14    ar
26    13    47    1
27    14    15    ar
28    14    48    1
29    15    16    1
30    15    31    ar
31    16    17    am
32    16    49    1
33    17    18    2
34    17    19    1
35    19    24    ar
36    19    20    ar
37    20    21    ar
38    20    50    1
39    21    22    ar
40    21    51    1
41    22    23    ar
42    22    52    1
43    23    24    ar
44    23    53    1
45    24    25    1
46    25    30    ar
47    25    26    ar
48    26    27    ar
49    26    54    1
50    27    28    ar
51    27    55    1
52    28    29    ar
53    28    56    1
54    29    30    ar
55    29    57    1
56    30    58    1
57    31    32    ar
58    31    59    1
59    32    60    1
60    33    38    ar
61    33    34    ar
62    34    35    ar
63    34    61    1
64    35    36    ar
65    35    62    1
66    36    37    ar
67    36    63    1
68    37    38    ar
69    37    64    1
70    39    65    1
@<TRIPOS>SUBSTRUCTURE
1   ZINC000012503187 1     RESIDUE    1   A     ZIN   1
