@<TRIPOS>MOLECULE
ZINC000003977978
67   71    0    0    0
SMALL
NO_CHARGES
@<TRIPOS>ATOM
1 C1             2.1000     1.1983    -0.5965 C.3
2 C2             2.2687    -0.2894    -0.7677 C.2
3 O3             3.2228    -0.8491    -0.2817 O.2
4 O4             1.3590    -0.9927    -1.4602 O.3
5 C5             1.5857    -2.4215    -1.5846 C.3
6 C6             0.4703    -3.0390    -2.3883 C.2
7 O7            -0.4695    -2.3643    -2.7345 O.2
8 C8             0.5278    -4.4983    -2.7598 C.3
9 O9             1.1275    -5.2927    -1.7186 O.3
10 C10            0.0095    -5.8141    -0.9685 C.3
11 C11            0.4294    -7.0553    -0.1785 C.3
12 C12           -0.5452    -4.7450    -0.0251 C.3
13 O13           -0.9697    -6.1623    -1.9695 O.3
14 C14           -0.8931    -5.1071    -2.9498 C.3
15 H15           -1.6834    -4.3667    -2.8258 H
16 C16           -0.9120    -5.7612    -4.3584 C.3
17 C17            0.5693    -6.0450    -4.6296 C.3
18 H18            0.9014    -6.9097    -4.0549 H
19 C19            0.9525    -6.2033    -6.0900 C.3
20 H20            0.6755    -5.3053    -6.6424 H
21 C21            0.2364    -7.4170    -6.6854 C.3
22 C22            0.5953    -7.5516    -8.1687 C.3
23 H23            0.2174    -6.6896    -8.7185 H
24 F24            0.0349    -8.7245    -8.6858 F
25 C25            2.1069    -7.6106    -8.2842 C.2
26 C26            2.6607    -8.5999    -8.9713 C.2
27 C27            4.1236    -8.7016    -9.0887 C.2
28 O28            4.6348    -9.5852    -9.7510 O.2
29 C29            4.9553    -7.7094    -8.3868 C.2
30 C30            4.3806    -6.7265    -7.7117 C.2
31 C31            2.9062    -6.5345    -7.6107 C.3
32 C32            2.5600    -5.2043    -8.2828 C.3
33 C33            2.4759    -6.3986    -6.1478 C.3
34 F34            2.7981    -7.5747    -5.4622 F
35 C35            3.2335    -5.2412    -5.5038 C.3
36 H36            4.2971    -5.4792    -5.4845 H
37 O37            3.0341    -4.0613    -6.2848 O.3
38 C38            2.7523    -4.9780    -4.0682 C.3
39 C39            1.2385    -4.7163    -4.0899 C.3
40 C40            0.9227    -3.5828    -5.0678 C.3
41 H41            2.5929     1.7169    -1.4187 H
42 H42            1.0384     1.4458    -0.5951 H
43 H43            2.5465     1.5082     0.3484 H
44 H44            2.5363    -2.5960    -2.0886 H
45 H45            1.6120    -2.8730    -0.5929 H
46 H46            1.2293    -6.7920     0.5136 H
47 H47           -0.4249    -7.4359     0.3813 H
48 H48            0.7830    -7.8222    -0.8677 H
49 H49           -0.9663    -3.9273    -0.6100 H
50 H50           -1.3229    -5.1815     0.6016 H
51 H51            0.2584    -4.3644     0.6054 H
52 H52           -1.4855    -6.6880    -4.3450 H
53 H53           -1.3133    -5.0693    -5.0989 H
54 H54            0.5457    -8.3172    -6.1543 H
55 H55           -0.8412    -7.2885    -6.5832 H
56 H56            2.0326    -9.3371    -9.4492 H
57 H57            6.0322    -7.7834    -8.4231 H
58 H58            5.0196    -6.0202    -7.2026 H
59 H59            2.4941    -5.3485    -9.3612 H
60 H60            1.6029    -4.8447    -7.9051 H
61 H61            3.3364    -4.4722    -8.0609 H
62 H62            3.4859    -3.2795    -5.9387 H
63 H63            2.9373    -5.8551    -3.4481 H
64 H64            3.2726    -4.1138    -3.6551 H
65 H65            1.1349    -3.9111    -6.0853 H
66 H66           -0.1305    -3.3143    -4.9849 H
67 H67            1.5386    -2.7155    -4.8300 H
@<TRIPOS>BOND
1    1    2 1
2    1   41 1
3    1   42 1
4    1   43 1
5    2    3 2
6    2    4 1
7    4    5 1
8    5    6 1
9    5   44 1
10    5   45 1
11    6    7 2
12    6    8 1
13    8   14 1
14    8   39 1
15    8    9 1
16    9   10 1
17   10   11 1
18   10   12 1
19   10   13 1
20   11   46 1
21   11   47 1
22   11   48 1
23   12   49 1
24   12   50 1
25   12   51 1
26   13   14 1
27   14   15 1
28   14   16 1
29   16   17 1
30   16   52 1
31   16   53 1
32   17   18 1
33   17   39 1
34   17   19 1
35   19   20 1
36   19   33 1
37   19   21 1
38   21   22 1
39   21   54 1
40   21   55 1
41   22   23 1
42   22   24 1
43   22   25 1
44   25   31 1
45   25   26 2
46   26   27 1
47   26   56 1
48   27   28 2
49   27   29 1
50   29   30 2
51   29   57 1
52   30   31 1
53   30   58 1
54   31   32 1
55   31   33 1
56   32   59 1
57   32   60 1
58   32   61 1
59   33   34 1
60   33   35 1
61   35   36 1
62   35   37 1
63   35   38 1
64   37   62 1
65   38   39 1
66   38   63 1
67   38   64 1
68   39   40 1
69   40   65 1
70   40   66 1
71   40   67 1
