@<TRIPOS>MOLECULE
ZINC000019364230
52   54    0    0    0
SMALL
USER_CHARGES
NO_NAME
@<TRIPOS>ATOM
1 O1       -5.2635    -3.7086    -2.2071 O.co2  1 <0>      -0.6800
2 C2       -4.2087    -3.3897    -2.7288 C.2    1 <0>       0.5000
3 O3       -3.6834    -4.1293    -3.5434 O.co2  1 <0>      -0.6800
4 C4       -3.5573    -2.0786    -2.3713 C.3    1 <0>      -0.0100
5 O5       -4.3612    -1.3944    -1.4081 O.3    1 <0>      -0.3600
6 C6       -3.8300    -0.1325    -0.9990 C.3    1 <0>       0.0100
7 C7       -4.7674     0.5069     0.0274 C.3    1 <0>       0.0600
8 N8       -4.7878    -0.3105     1.2478 N.3    1 <0>      -0.5300
9 C9       -3.4244    -0.6647     1.6674 C.3    1 <0>       0.0200
10 C10      -3.4864    -1.4632     2.9713 C.3    1 <0>       0.0000
11 N11      -4.2846    -2.6787     2.7638 N.4    1 <0>      -0.3800
12 H12      -3.8640    -3.2368     2.0360 H      1 <0>       0.4200
13 C13      -4.3291    -3.4538     4.0109 C.3    1 <0>       0.1300
14 H14      -4.7829    -2.8508     4.7974 H      1 <0>       0.1500
15 C15      -2.9285    -3.8354     4.4154 C.ar   1 <0>      -0.1300
16 C16      -2.0135    -4.2245     3.4551 C.ar   1 <0>      -0.1200
17 C17      -0.7287    -4.5745     3.8261 C.ar   1 <0>      -0.1000
18 C18      -0.3588    -4.5350     5.1575 C.ar   1 <0>      -0.1000
19 C19      -1.2735    -4.1450     6.1177 C.ar   1 <0>      -0.1100
20 C20      -2.5570    -3.7909     5.7462 C.ar   1 <0>      -0.0900
21 C21      -5.1480    -4.7009     3.7983 C.ar   1 <0>      -0.1300
22 C22      -5.0317    -5.4109     2.6178 C.ar   1 <0>      -0.1000
23 C23      -5.7824    -6.5548     2.4222 C.ar   1 <0>      -0.0900
24 C24      -6.6504    -6.9892     3.4081 C.ar   1 <0>      -0.0100
25 Cl25     -7.5933    -8.4261     3.1634 Cl     1 <0>      -0.0500
26 C26      -6.7664    -6.2782     4.5893 C.ar   1 <0>      -0.1000
27 C27      -6.0109    -5.1376     4.7860 C.ar   1 <0>      -0.0800
28 C28      -5.6501    -2.3084     2.3692 C.3    1 <0>       0.0000
29 C29      -5.6061    -1.5169     1.0602 C.3    1 <0>       0.0100
30 H30      -2.5689    -2.2664    -1.9520 H      1 <0>       0.0400
31 H31      -3.4614    -1.4645    -3.2667 H      1 <0>       0.0500
32 H32      -2.8472    -0.2799    -0.5512 H      1 <0>       0.0400
33 H33      -3.7398     0.5221    -1.8659 H      1 <0>       0.0600
34 H34      -4.4137     1.5095     0.2675 H      1 <0>       0.1000
35 H35      -5.7738     0.5661    -0.3870 H      1 <0>       0.0900
36 H36      -2.9510    -1.2685     0.8933 H      1 <0>       0.0700
37 H37      -2.8446     0.2448     1.8251 H      1 <0>       0.1200
38 H38      -2.4771    -1.7391     3.2768 H      1 <0>       0.1300
39 H39      -3.9476    -0.8541     3.7488 H      1 <0>       0.1400
40 H40      -2.3025    -4.2553     2.4149 H      1 <0>       0.1200
41 H41      -0.0140    -4.8792     3.0759 H      1 <0>       0.1400
42 H42       0.6448    -4.8092     5.4474 H      1 <0>       0.1300
43 H43      -0.9846    -4.1145     7.1579 H      1 <0>       0.1300
44 H44      -3.2717    -3.4862     6.4964 H      1 <0>       0.1300
45 H45      -4.3543    -5.0715     1.8482 H      1 <0>       0.1300
46 H46      -5.6917    -7.1092     1.4999 H      1 <0>       0.1500
47 H47      -7.4440    -6.6166     5.3591 H      1 <0>       0.1500
48 H48      -6.1011    -4.5826     5.7082 H      1 <0>       0.1400
49 H49      -6.2449    -3.2108     2.2282 H      1 <0>       0.1300
50 H50      -6.1002    -1.6949     3.1497 H      1 <0>       0.1300
51 H51      -6.6180    -1.2291     0.7750 H      1 <0>       0.1200
52 H52      -5.1686    -2.1348     0.2761 H      1 <0>       0.1100
@<TRIPOS>BOND
1    1    2 ar
2    2    3 ar
3    2    4 1
4    4    5 1
5    4   30 1
6    4   31 1
7    5    6 1
8    6    7 1
9    6   32 1
10    6   33 1
11    7    8 1
12    7   34 1
13    7   35 1
14    8   29 1
15    8    9 1
16    9   10 1
17    9   36 1
18    9   37 1
19   10   11 1
20   10   38 1
21   10   39 1
22   11   12 1
23   11   13 1
24   11   28 1
25   13   14 1
26   13   15 1
27   13   21 1
28   15   20 ar
29   15   16 ar
30   16   17 ar
31   16   40 1
32   17   18 ar
33   17   41 1
34   18   19 ar
35   18   42 1
36   19   20 ar
37   19   43 1
38   20   44 1
39   21   27 ar
40   21   22 ar
41   22   23 ar
42   22   45 1
43   23   24 ar
44   23   46 1
45   24   25 1
46   24   26 ar
47   26   27 ar
48   26   47 1
49   27   48 1
50   28   29 1
51   28   49 1
52   28   50 1
53   29   51 1
54   29   52 1
