@<TRIPOS>MOLECULE
ZINC000116473771
44    47    1     0     0
SMALL
USER_CHARGES
@<TRIPOS>ATOM
1      O1      0.1189   -0.0555    1.0363 O.2      1 ZINC000116473771   -0.4400
2      C2      0.0798    1.1317    0.7840 C.2      1 ZINC000116473771    0.3900
3      C3     -1.2184    1.8186    0.6078 C.ar     1 ZINC000116473771   -0.1300
4      C4     -2.3965    1.1004    0.4499 C.ar     1 ZINC000116473771   -0.0800
5      C5     -3.5964    1.7766    0.2872 C.ar     1 ZINC000116473771   -0.1200
6      C6     -3.6264    3.1574    0.2806 C.ar     1 ZINC000116473771   -0.1100
7      C7     -2.4571    3.8878    0.4367 C.ar     1 ZINC000116473771   -0.0900
8      C8     -1.2492    3.2257    0.6009 C.ar     1 ZINC000116473771   -0.0900
9      C9      0.0179    3.9738    0.7703 C.2      1 ZINC000116473771    0.4300
10     O10    -0.0009    5.1652    1.0127 O.2      1 ZINC000116473771   -0.5000
11     C11     1.2965    3.2640    0.6436 C.2      1 ZINC000116473771   -0.4300
12     C12     2.5765    4.0472    0.5049 C.3      1 ZINC000116473771    0.0200
13     H13     3.4060    3.3607    0.3353 H        1 ZINC000116473771    0.0700
14     C14     2.4602    5.0090   -0.6793 C.3      1 ZINC000116473771   -0.1200
15     C15     3.7597    5.8042   -0.8201 C.3      1 ZINC000116473771   -0.1100
16     C16     4.0113    6.6012    0.4614 C.3      1 ZINC000116473771   -0.0500
17     H17     4.9371    7.1677    0.3611 H        1 ZINC000116473771    0.0800
18     C18     2.8645    7.5504    0.6959 C.ar     1 ZINC000116473771   -0.0400
19     C19     2.5195    7.9121    1.9848 C.ar     1 ZINC000116473771   -0.1000
20     C20     1.4678    8.7826    2.2005 C.ar     1 ZINC000116473771   -0.1100
21     C21     0.7603    9.2920    1.1262 C.ar     1 ZINC000116473771   -0.0400
22     Cl22   -0.5604   10.3858    1.3963 Cl       1 ZINC000116473771   -0.0900
23     C23     1.1061    8.9296   -0.1635 C.ar     1 ZINC000116473771   -0.1100
24     C24     2.1615    8.0634   -0.3782 C.ar     1 ZINC000116473771   -0.1000
25     C25     4.1276    5.6395    1.6456 C.3      1 ZINC000116473771   -0.1100
26     C26     2.8281    4.8443    1.7864 C.3      1 ZINC000116473771   -0.1200
27     C27     1.3338    1.9150    0.6544 C.2      1 ZINC000116473771    0.2500
28     O28     2.5191    1.2724    0.5380 O.3      1 ZINC000116473771   -0.6500
29     H29    -2.3783    0.0206    0.4536 H        1 ZINC000116473771    0.1300
30     H30    -4.5135    1.2196    0.1644 H        1 ZINC000116473771    0.1300
31     H31    -4.5670    3.6724    0.1525 H        1 ZINC000116473771    0.1300
32     H32    -2.4871    4.9674    0.4301 H        1 ZINC000116473771    0.1300
33     H33     2.2809    4.4411   -1.5923 H        1 ZINC000116473771    0.0500
34     H34     1.6307    5.6955   -0.5097 H        1 ZINC000116473771    0.0700
35     H35     4.5892    5.1176   -0.9898 H        1 ZINC000116473771    0.0600
36     H36     3.6768    6.4893   -1.6638 H        1 ZINC000116473771    0.0500
37     H37     3.0716    7.5141    2.8233 H        1 ZINC000116473771    0.1300
38     H38     1.1982    9.0648    3.2075 H        1 ZINC000116473771    0.1300
39     H39     0.5539    9.3266   -1.0025 H        1 ZINC000116473771    0.1200
40     H40     2.4318    7.7808   -1.3849 H        1 ZINC000116473771    0.1300
41     H41     4.9571    4.9529    1.4760 H        1 ZINC000116473771    0.0600
42     H42     4.3069    6.2073    2.5586 H        1 ZINC000116473771    0.0500
43     H43     1.9986    5.5308    1.9560 H        1 ZINC000116473771    0.0800
44     H44     2.9110    4.1591    2.6301 H        1 ZINC000116473771    0.0500
@<TRIPOS>BOND
1     1     2     2
2     2     27    1
3     2     3     1
4     3     8     ar
5     3     4     ar
6     4     5     ar
7     4     29    1
8     5     6     ar
9     5     30    1
10    6     7     ar
11    6     31    1
12    7     8     ar
13    7     32    1
14    8     9     1
15    9     10    2
16    9     11    1
17    11    12    1
18    11    27    2
19    12    13    1
20    12    26    1
21    12    14    1
22    14    15    1
23    14    33    1
24    14    34    1
25    15    16    1
26    15    35    1
27    15    36    1
28    16    17    1
29    16    18    1
30    16    25    1
31    18    24    ar
32    18    19    ar
33    19    20    ar
34    19    37    1
35    20    21    ar
36    20    38    1
37    21    22    1
38    21    23    ar
39    23    24    ar
40    23    39    1
41    24    40    1
42    25    26    1
43    25    41    1
44    25    42    1
45    26    43    1
46    26    44    1
47    27    28    1
@<TRIPOS>SUBSTRUCTURE
1   ZINC000116473771 1     RESIDUE    1   A     ZIN   1
