@<TRIPOS>MOLECULE
ZINC000003914596
99    103   1     0     0
SMALL
USER_CHARGES
@<TRIPOS>ATOM
1      C1      0.9454    0.5803   -1.1148 C.3      1 ZINC000003914596   -0.1600
2      C2      1.1528   -0.9134   -1.3733 C.3      1 ZINC000003914596    0.1700
3      C3      1.9964   -1.5135   -0.2468 C.3      1 ZINC000003914596   -0.1600
4      C4     -0.2056   -1.6158   -1.4229 C.3      1 ZINC000003914596   -0.1600
5      N5      1.8441   -1.0964   -2.6518 N.am     1 ZINC000003914596   -0.7300
6      C6      3.0665   -0.5607   -2.8397 C.2      1 ZINC000003914596    0.5200
7      O7      3.5941    0.0729   -1.9502 O.2      1 ZINC000003914596   -0.5100
8      C8      3.7777   -0.7489   -4.1549 C.3      1 ZINC000003914596    0.0700
9      H9      3.0610   -0.6587   -4.9712 H        1 ZINC000003914596    0.0600
10     C10     4.4209   -2.1374   -4.1924 C.3      1 ZINC000003914596   -0.1000
11     C11     5.1635   -2.3126   -5.5191 C.3      1 ZINC000003914596   -0.0800
12     H12     4.4536   -2.2455   -6.3435 H        1 ZINC000003914596    0.0700
13     C13     5.8505   -3.6774   -5.5498 C.3      1 ZINC000003914596   -0.1100
14     C14     6.8577   -3.7718   -4.4021 C.3      1 ZINC000003914596   -0.1200
15     C15     7.9067   -2.6683   -4.5559 C.3      1 ZINC000003914596   -0.1200
16     C16     7.2180   -1.3032   -4.5148 C.3      1 ZINC000003914596   -0.1100
17     C17     6.2116   -1.2055   -5.6586 C.3      1 ZINC000003914596   -0.0800
18     H18     6.7310   -1.3018   -6.6121 H        1 ZINC000003914596    0.0700
19     C19     5.5066    0.1529   -5.5921 C.3      1 ZINC000003914596    0.0500
20     N20     4.8164    0.2785   -4.3005 N.3      1 ZINC000003914596   -0.5000
21     C21     4.2464    1.6225   -4.1368 C.3      1 ZINC000003914596    0.0200
22     C22     5.3578    2.6059   -3.7644 C.3      1 ZINC000003914596    0.1200
23     H23     5.9000    2.2300   -2.8968 H        1 ZINC000003914596    0.1200
24     O24     6.2584    2.7459   -4.8650 O.3      1 ZINC000003914596   -0.5500
25     C25     4.7438    3.9672   -3.4316 C.3      1 ZINC000003914596    0.1300
26     H26     3.9918    3.8458   -2.6520 H        1 ZINC000003914596    0.1000
27     C27     4.0893    4.5517   -4.6849 C.3      1 ZINC000003914596   -0.1000
28     C28     3.3794    5.8328   -4.3300 C.ar     1 ZINC000003914596   -0.0600
29     C29     2.0570    5.8018   -3.9286 C.ar     1 ZINC000003914596   -0.1100
30     C30     1.4058    6.9769   -3.6030 C.ar     1 ZINC000003914596   -0.1100
31     C31     2.0772    8.1829   -3.6785 C.ar     1 ZINC000003914596   -0.1200
32     C32     3.3999    8.2138   -4.0790 C.ar     1 ZINC000003914596   -0.1100
33     C33     4.0523    7.0383   -4.4005 C.ar     1 ZINC000003914596   -0.1100
34     N34     5.7934    4.8743   -2.9605 N.am     1 ZINC000003914596   -0.7200
35     C35     5.4788    5.9092   -2.1565 C.2      1 ZINC000003914596    0.5200
36     O36     4.3268    6.0896   -1.8229 O.2      1 ZINC000003914596   -0.4900
37     C37     6.5585    6.8422   -1.6720 C.3      1 ZINC000003914596    0.1500
38     H38     7.0440    7.3116   -2.5276 H        1 ZINC000003914596    0.1200
39     C39     7.5933    6.0515   -0.8689 C.3      1 ZINC000003914596   -0.1600
40     C40     6.9348    5.4529    0.3472 C.2      1 ZINC000003914596    0.5100
41     N41     7.6742    4.7817    1.2523 N.am     1 ZINC000003914596   -0.8600
42     O42     5.7393    5.5751    0.5115 O.2      1 ZINC000003914596   -0.5200
43     N43     5.9648    7.8755   -0.8199 N.am     1 ZINC000003914596   -0.6800
44     C44     6.6202    9.0343   -0.6098 C.2      1 ZINC000003914596    0.5700
45     O45     7.6590    9.2600   -1.1982 O.2      1 ZINC000003914596   -0.5400
46     C46     6.0735   10.0337    0.3394 C.ar     1 ZINC000003914596    0.1100
47     C47     6.7656   11.2365    0.5416 C.ar     1 ZINC000003914596   -0.1300
48     C48     6.2726   12.1653    1.4126 C.ar     1 ZINC000003914596   -0.0600
49     C49     5.0705   11.8760    2.0845 C.ar     1 ZINC000003914596   -0.0900
50     C50     4.5062   12.7856    2.9935 C.ar     1 ZINC000003914596   -0.1000
51     C51     3.3417   12.4717    3.6249 C.ar     1 ZINC000003914596   -0.1000
52     C52     2.6998   11.2579    3.3824 C.ar     1 ZINC000003914596   -0.1000
53     C53     3.2164   10.3525    2.5090 C.ar     1 ZINC000003914596   -0.0800
54     C54     4.4192   10.6397    1.8351 C.ar     1 ZINC000003914596    0.1200
55     N55     4.9447    9.7731    0.9701 N.ar     1 ZINC000003914596   -0.4300
56     H56     1.9131    1.0807   -1.0795 H        1 ZINC000003914596    0.0800
57     H57     0.3444    1.0079   -1.9174 H        1 ZINC000003914596    0.0500
58     H58     0.4310    0.7165   -0.1635 H        1 ZINC000003914596    0.0600
59     H59     1.4820   -1.3774    0.7045 H        1 ZINC000003914596    0.0600
60     H60     2.1442   -2.5777   -0.4309 H        1 ZINC000003914596    0.0500
61     H61     2.9641   -1.0131   -0.2115 H        1 ZINC000003914596    0.0800
62     H62    -0.8066   -1.1882   -2.2254 H        1 ZINC000003914596    0.0600
63     H63    -0.0578   -2.6799   -1.6070 H        1 ZINC000003914596    0.0600
64     H64    -0.7200   -1.4796   -0.4716 H        1 ZINC000003914596    0.0700
65     H65     1.4222   -1.6031   -3.3632 H        1 ZINC000003914596    0.4000
66     H66     5.1244   -2.2352   -3.3656 H        1 ZINC000003914596    0.0900
67     H67     3.6467   -2.8997   -4.1050 H        1 ZINC000003914596    0.0700
68     H68     5.1024   -4.4627   -5.4415 H        1 ZINC000003914596    0.0600
69     H69     6.3704   -3.8007   -6.4998 H        1 ZINC000003914596    0.0600
70     H70     6.3384   -3.6500   -3.4515 H        1 ZINC000003914596    0.0600
71     H71     7.3475   -4.7452   -4.4272 H        1 ZINC000003914596    0.0600
72     H72     8.6279   -2.7363   -3.7414 H        1 ZINC000003914596    0.0600
73     H73     8.4221   -2.7870   -5.5089 H        1 ZINC000003914596    0.0600
74     H74     6.6996   -1.1866   -3.5631 H        1 ZINC000003914596    0.0800
75     H75     7.9652   -0.5165   -4.6195 H        1 ZINC000003914596    0.0600
76     H76     6.2440    0.9502   -5.6852 H        1 ZINC000003914596    0.1100
77     H77     4.7846    0.2281   -6.4052 H        1 ZINC000003914596    0.0300
78     H78     3.7816    1.9364   -5.0714 H        1 ZINC000003914596    0.0400
79     H79     3.4965    1.6053   -3.3459 H        1 ZINC000003914596    0.0900
80     H80     5.8434    3.0770   -5.6732 H        1 ZINC000003914596    0.3700
81     H81     4.8552    4.7560   -5.4331 H        1 ZINC000003914596    0.0800
82     H82     3.3707    3.8373   -5.0863 H        1 ZINC000003914596    0.0800
83     H83     1.5325    4.8596   -3.8696 H        1 ZINC000003914596    0.1100
84     H84     0.3725    6.9528   -3.2901 H        1 ZINC000003914596    0.1100
85     H85     1.5682    9.1011   -3.4248 H        1 ZINC000003914596    0.1100
86     H86     3.9243    9.1561   -4.1383 H        1 ZINC000003914596    0.1100
87     H87     5.0857    7.0624   -4.7134 H        1 ZINC000003914596    0.1100
88     H88     6.7148    4.7300   -3.2273 H        1 ZINC000003914596    0.4000
89     H89     8.0032    5.2547   -1.4895 H        1 ZINC000003914596    0.1100
90     H90     8.3969    6.7181   -0.5559 H        1 ZINC000003914596    0.1100
91     H91     8.6303    4.6840    1.1209 H        1 ZINC000003914596    0.4000
92     H92     7.2504    4.3964    2.0351 H        1 ZINC000003914596    0.4000
93     H93     5.0999    7.7257   -0.4070 H        1 ZINC000003914596    0.4300
94     H94     7.6861   11.4276    0.0101 H        1 ZINC000003914596    0.1500
95     H95     6.7917   13.0972    1.5815 H        1 ZINC000003914596    0.1500
96     H96     4.9936   13.7289    3.1909 H        1 ZINC000003914596    0.1300
97     H97     2.9092   13.1725    4.3237 H        1 ZINC000003914596    0.1300
98     H98     1.7773   11.0329    3.8970 H        1 ZINC000003914596    0.1300
99     H99     2.7064    9.4169    2.3331 H        1 ZINC000003914596    0.1400
@<TRIPOS>BOND
1     1     2     1
2     1     56    1
3     1     57    1
4     1     58    1
5     2     3     1
6     2     4     1
7     2     5     1
8     3     59    1
9     3     60    1
10    3     61    1
11    4     62    1
12    4     63    1
13    4     64    1
14    5     6     am
15    5     65    1
16    6     7     2
17    6     8     1
18    8     9     1
19    8     20    1
20    8     10    1
21    10    11    1
22    10    66    1
23    10    67    1
24    11    12    1
25    11    17    1
26    11    13    1
27    13    14    1
28    13    68    1
29    13    69    1
30    14    15    1
31    14    70    1
32    14    71    1
33    15    16    1
34    15    72    1
35    15    73    1
36    16    17    1
37    16    74    1
38    16    75    1
39    17    18    1
40    17    19    1
41    19    20    1
42    19    76    1
43    19    77    1
44    20    21    1
45    21    22    1
46    21    78    1
47    21    79    1
48    22    23    1
49    22    24    1
50    22    25    1
51    24    80    1
52    25    26    1
53    25    27    1
54    25    34    1
55    27    28    1
56    27    81    1
57    27    82    1
58    28    33    ar
59    28    29    ar
60    29    30    ar
61    29    83    1
62    30    31    ar
63    30    84    1
64    31    32    ar
65    31    85    1
66    32    33    ar
67    32    86    1
68    33    87    1
69    34    35    am
70    34    88    1
71    35    36    2
72    35    37    1
73    37    38    1
74    37    39    1
75    37    43    1
76    39    40    1
77    39    89    1
78    39    90    1
79    40    41    am
80    40    42    2
81    41    91    1
82    41    92    1
83    43    44    am
84    43    93    1
85    44    45    2
86    44    46    1
87    46    55    ar
88    46    47    ar
89    47    48    ar
90    47    94    1
91    48    49    ar
92    48    95    1
93    49    54    ar
94    49    50    ar
95    50    51    ar
96    50    96    1
97    51    52    ar
98    51    97    1
99    52    53    ar
100   52    98    1
101   53    54    ar
102   53    99    1
103   54    55    ar
@<TRIPOS>SUBSTRUCTURE
1   ZINC000003914596 1     RESIDUE    1   A     ZIN   1
