@<TRIPOS>MOLECULE
ZINC000003816287
46   49    0    0    0
SMALL
USER_CHARGES
NO_NAME
@<TRIPOS>ATOM
1 C1       -0.2326     1.8765     0.6624 C.3    1 <0>       0.0900
2 N2       -0.7233     1.0613     1.7763 N.am   1 <0>      -0.7300
3 C3        0.0641     0.1071     2.3111 C.2    1 <0>       0.5500
4 O4        1.1819    -0.0772     1.8689 O.2    1 <0>      -0.5100
5 C5       -0.4295    -0.7132     3.4319 C.ar   1 <0>      -0.1300
6 C6       -1.7149    -0.5091     3.9395 C.ar   1 <0>      -0.0700
7 C7       -2.1705    -1.2792     4.9874 C.ar   1 <0>      -0.1300
8 C8       -1.3599    -2.2568     5.5427 C.ar   1 <0>      -0.0700
9 C9       -0.0881    -2.4711     5.0532 C.ar   1 <0>      -0.1300
10 C10       0.3873    -1.7088     3.9926 C.ar   1 <0>      -0.0500
11 S11       2.0112    -1.9797     3.3648 S.3    1 <0>       0.1100
12 C12       2.6755    -3.1679     4.4836 C.ar   1 <0>      -0.1400
13 C13       2.6114    -4.5265     4.1705 C.ar   1 <0>      -0.1100
14 C14       3.1207    -5.4591     5.0260 C.ar   1 <0>      -0.0500
15 C15       3.7119    -5.0553     6.2250 C.ar   1 <0>      -0.1400
16 C16       4.3402    -5.7751     7.3413 C.2    1 <0>       0.1200
17 C17       4.5031    -7.2325     7.4549 C.2    1 <0>      -0.0400
18 C18       5.1006    -7.7599     8.5381 C.2    1 <0>      -0.0800
19 C19       5.2637    -9.2187     8.6518 C.ar   1 <0>       0.1500
20 C20       5.8802    -9.7620     9.7822 C.ar   1 <0>      -0.1600
21 C21       6.0255   -11.1343     9.8733 C.ar   1 <0>      -0.0700
22 C22       5.5510   -11.9224     8.8334 C.ar   1 <0>      -0.1700
23 C23       4.9506   -11.3196     7.7428 C.ar   1 <0>       0.1000
24 N24       4.8183   -10.0108     7.6803 N.ar   1 <0>      -0.4800
25 N25       4.7301    -4.8783     8.2200 N.2    1 <0>      -0.2300
26 N26       4.4049    -3.5956     7.7680 N.pl3  1 <0>      -0.5000
27 C27       3.7814    -3.6879     6.5488 C.ar   1 <0>       0.1200
28 C28       3.2625    -2.7473     5.6642 C.ar   1 <0>      -0.0800
29 H29       0.0088     1.2306    -0.1818 H      1 <0>       0.0600
30 H30      -1.0029     2.5887     0.3664 H      1 <0>       0.0800
31 H31       0.6614     2.4168     0.9738 H      1 <0>       0.0600
32 H32      -1.6148     1.2083     2.1290 H      1 <0>       0.4000
33 H33      -2.3508     0.2516     3.5113 H      1 <0>       0.1300
34 H34      -3.1645    -1.1199     5.3784 H      1 <0>       0.1300
35 H35      -1.7263    -2.8545     6.3643 H      1 <0>       0.1300
36 H36       0.5373    -3.2346     5.4918 H      1 <0>       0.1300
37 H37       2.1548    -4.8419     3.2439 H      1 <0>       0.1400
38 H38       3.0664    -6.5085     4.7765 H      1 <0>       0.1400
39 H39       4.1429    -7.8791     6.6684 H      1 <0>       0.1500
40 H40       5.4608    -7.1133     9.3246 H      1 <0>       0.1400
41 H41       6.2383    -9.1194    10.5730 H      1 <0>       0.1400
42 H42       6.4981   -11.5831    10.7345 H      1 <0>       0.1400
43 H43       5.6503   -12.9970     8.8754 H      1 <0>       0.1400
44 H44       4.5810   -11.9313     6.9331 H      1 <0>       0.1600
45 H45       4.5903    -2.7700     8.2422 H      1 <0>       0.4400
46 H46       3.3147    -1.6945     5.8993 H      1 <0>       0.1400
@<TRIPOS>BOND
1    1    2 1
2    1   29 1
3    1   30 1
4    1   31 1
5    2    3 am
6    2   32 1
7    3    4 2
8    3    5 1
9    5   10 ar
10    5    6 ar
11    6    7 ar
12    6   33 1
13    7    8 ar
14    7   34 1
15    8    9 ar
16    8   35 1
17    9   10 ar
18    9   36 1
19   10   11 1
20   11   12 1
21   12   28 ar
22   12   13 ar
23   13   14 ar
24   13   37 1
25   14   15 ar
26   14   38 1
27   15   27 ar
28   15   16 1
29   16   17 1
30   16   25 2
31   17   18 2
32   17   39 1
33   18   19 1
34   18   40 1
35   19   24 ar
36   19   20 ar
37   20   21 ar
38   20   41 1
39   21   22 ar
40   21   42 1
41   22   23 ar
42   22   43 1
43   23   24 ar
44   23   44 1
45   25   26 1
46   26   27 1
47   26   45 1
48   27   28 ar
49   28   46 1
