@<TRIPOS>MOLECULE
ZINC000000895318
13   12    0    0    0
SMALL
USER_CHARGES
NO_NAME
@<TRIPOS>ATOM
1 C1       -0.0187     1.5258     0.0104 C.3    1 <0>      -0.1800
2 C2        0.0021    -0.0041     0.0020 C.3    1 <0>       0.1000
3 H3       -1.0205    -0.3814     0.0098 H      1 <0>       0.0700
4 O4        0.6709    -0.4649    -1.1737 O.3    1 <0>      -0.5600
5 C5        0.7421    -0.5109     1.2415 C.3    1 <0>       0.0800
6 O6        2.0438     0.0763     1.2925 O.3    1 <0>      -0.5600
7 H7        1.0039     1.9031     0.0027 H      1 <0>       0.0700
8 H8       -0.5459     1.8868    -0.8726 H      1 <0>       0.0600
9 H9       -0.5289     1.8773     0.9072 H      1 <0>       0.0600
10 H10       0.2557    -0.1806    -1.9994 H      1 <0>       0.3800
11 H11       0.1838    -0.2350     2.1361 H      1 <0>       0.0600
12 H12       0.8346    -1.5958     1.1912 H      1 <0>       0.0500
13 H13       2.5708    -0.2008     2.0544 H      1 <0>       0.3800
@<TRIPOS>BOND
1    1    2 1
2    1    7 1
3    1    8 1
4    1    9 1
5    2    3 1
6    2    4 1
7    2    5 1
8    4   10 1
9    5    6 1
10    5   11 1
11    5   12 1
12    6   13 1
