@<TRIPOS>MOLECULE
ZINC000001529323
53   55    0    0    0
SMALL
USER_CHARGES
NO_NAME
@<TRIPOS>ATOM
1 C1       -0.0178     1.4608     0.0101 C.3    1 <0>       0.0900
2 N2        0.0021    -0.0041     0.0020 N.pl3  1 <0>      -0.6200
3 C3        0.0241    -0.7433     1.2666 C.3    1 <0>       0.1800
4 C4       -1.3889    -1.0161     1.7137 C.ar   1 <0>       0.0300
5 C5       -1.9890    -2.2346     1.4000 C.ar   1 <0>       0.1600
6 N6       -3.2223    -2.4957     1.7792 N.ar   1 <0>      -0.4400
7 C7       -3.9053    -1.5823     2.4728 C.ar   1 <0>       0.3700
8 N8       -5.1618    -1.7977     2.8828 N.ar   1 <0>      -0.6000
9 C9       -5.8204    -0.8839     3.5671 C.ar   1 <0>       0.6400
10 N10      -7.1141    -1.1678     3.9610 N.pl3  1 <0>      -0.8100
11 N11      -5.3060     0.2963     3.8990 N.ar   1 <0>      -0.6300
12 C12      -4.0710     0.6309     3.5522 C.ar   1 <0>       0.5400
13 N13      -3.5404     1.8543     3.8978 N.pl3  1 <0>      -0.7900
14 C14      -3.2903    -0.3453     2.7894 C.ar   1 <0>      -0.0900
15 N15      -2.0426    -0.1036     2.4013 N.ar   1 <0>      -0.3700
16 C16       0.0000    -0.6927    -1.2059 C.ar   1 <0>       0.2200
17 C17       0.0132    -2.0849    -1.2118 C.ar   1 <0>      -0.2100
18 C18       0.0112    -2.7693    -2.4056 C.ar   1 <0>      -0.0200
19 C19      -0.0041    -2.0653    -3.6132 C.ar   1 <0>      -0.1600
20 C20      -0.0068    -2.7960    -4.8948 C.2    1 <0>       0.5600
21 O21       0.0043    -4.0118    -4.9014 O.2    1 <0>      -0.5600
22 N22      -0.0215    -2.1158    -6.0582 N.am   1 <0>      -0.6800
23 C23      -0.0242    -2.8414    -7.3309 C.3    1 <0>       0.0700
24 H24      -0.6045    -3.7580    -7.2253 H      1 <0>       0.0800
25 C25      -0.6498    -1.9640    -8.4170 C.3    1 <0>      -0.0800
26 C26      -2.1237    -1.7184    -8.0880 C.3    1 <0>      -0.1800
27 C27      -2.7399    -0.8541    -9.1577 C.2    1 <0>       0.4900
28 O28      -2.0630    -0.4701   -10.0962 O.co2  1 <0>      -0.7000
29 O29      -3.9154    -0.5388    -9.0846 O.co2  1 <0>      -0.7200
30 C30       1.3916    -3.1849    -7.7163 C.2    1 <0>       0.5000
31 O31       2.3171    -2.8542    -6.9948 O.co2  1 <0>      -0.7000
32 O32       1.6116    -3.7934    -8.7496 O.co2  1 <0>      -0.7000
33 C33      -0.0173    -0.6674    -3.6039 C.ar   1 <0>      -0.0400
34 C34      -0.0210     0.0112    -2.4068 C.ar   1 <0>      -0.2000
35 H35       1.0048     1.8381     0.0023 H      1 <0>       0.0500
36 H36      -0.5450     1.8219    -0.8730 H      1 <0>       0.0700
37 H37      -0.5280     1.8123     0.9069 H      1 <0>       0.0700
38 H38       0.5496    -1.6879     1.1262 H      1 <0>       0.1000
39 H39       0.5371    -0.1514     2.0246 H      1 <0>       0.0900
40 H40      -1.4357    -2.9730     0.8388 H      1 <0>       0.1800
41 H41      -7.5143    -2.0214     3.7328 H      1 <0>       0.4200
42 H42      -7.6220    -0.5134     4.4657 H      1 <0>       0.4100
43 H43      -4.0724     2.4883     4.4037 H      1 <0>       0.4100
44 H44      -2.6347     2.0818     3.6352 H      1 <0>       0.4200
45 H45       0.0253    -2.6282    -0.2785 H      1 <0>       0.1200
46 H46       0.0217    -3.8493    -2.4095 H      1 <0>       0.1400
47 H47      -0.0304    -1.1459    -6.0529 H      1 <0>       0.3900
48 H48      -0.1237    -1.0104    -8.4614 H      1 <0>       0.0500
49 H49      -0.5716    -2.4674    -9.3806 H      1 <0>       0.0800
50 H50      -2.6498    -2.6720    -8.0435 H      1 <0>       0.0500
51 H51      -2.2019    -1.2150    -7.1243 H      1 <0>       0.0500
52 H52      -0.0287    -0.1207    -4.5353 H      1 <0>       0.1300
53 H53      -0.0315     1.0911    -2.3989 H      1 <0>       0.1200
@<TRIPOS>BOND
1    1    2 1
2    1   35 1
3    1   36 1
4    1   37 1
5    2    3 1
6    2   16 1
7    3    4 1
8    3   38 1
9    3   39 1
10    4   15 ar
11    4    5 ar
12    5    6 ar
13    5   40 1
14    6    7 ar
15    7   14 ar
16    7    8 ar
17    8    9 ar
18    9   10 1
19    9   11 ar
20   10   41 1
21   10   42 1
22   11   12 ar
23   12   13 1
24   12   14 ar
25   13   43 1
26   13   44 1
27   14   15 ar
28   16   34 ar
29   16   17 ar
30   17   18 ar
31   17   45 1
32   18   19 ar
33   18   46 1
34   19   20 1
35   19   33 ar
36   20   21 2
37   20   22 am
38   22   23 1
39   22   47 1
40   23   24 1
41   23   25 1
42   23   30 1
43   25   26 1
44   25   48 1
45   25   49 1
46   26   27 1
47   26   50 1
48   26   51 1
49   27   28 ar
50   27   29 ar
51   30   31 ar
52   30   32 ar
53   33   34 ar
54   33   52 1
55   34   53 1
