@<TRIPOS>MOLECULE
ZINC000012484958
49    49    1     0     0
SMALL
USER_CHARGES
@<TRIPOS>ATOM
1      C1      1.1238    1.0070   -0.0766 C.3      1 ZINC000012484958   -0.1200
2      C2      0.0160   -0.0007    0.0920 C.2      1 ZINC000012484958   -0.1300
3      C3     -0.1301   -0.6875    1.3099 C.2      1 ZINC000012484958   -0.1000
4      C4     -0.2811    0.0074    2.4681 C.2      1 ZINC000012484958   -0.1200
5      C5     -0.1658    1.4203    2.4671 C.2      1 ZINC000012484958   -0.1000
6      C6     -1.0693    2.1196    1.8010 C.2      1 ZINC000012484958   -0.0900
7      C7     -2.1690    1.3700    1.0940 C.3      1 ZINC000012484958   -0.1500
8      C8     -1.0615    3.6179    1.7099 C.3      1 ZINC000012484958   -0.0900
9      C9     -0.1670    4.2072    2.8024 C.3      1 ZINC000012484958   -0.1200
10     C10     1.1849    3.4842    2.7680 C.3      1 ZINC000012484958   -0.1100
11     C11     0.9714    2.0386    3.2271 C.3      1 ZINC000012484958   -0.0100
12     C12     0.6599    2.0228    4.7250 C.3      1 ZINC000012484958   -0.1400
13     C13     2.2447    1.2308    2.9681 C.3      1 ZINC000012484958   -0.1500
14     C14    -0.8455   -0.2466   -0.9377 C.2      1 ZINC000012484958   -0.0800
15     C15    -1.9051   -1.1480   -0.7651 C.2      1 ZINC000012484958   -0.1900
16     C16    -2.7127   -1.4734   -1.8315 C.2      1 ZINC000012484958    0.0000
17     C17    -2.4101   -0.9921   -3.1115 C.2      1 ZINC000012484958   -0.0800
18     C18    -1.1517   -1.4422   -3.8079 C.3      1 ZINC000012484958   -0.1100
19     C19    -3.2622   -0.1078   -3.7335 C.2      1 ZINC000012484958   -0.1500
20     C20    -4.3768    0.3962   -3.0439 C.2      1 ZINC000012484958    0.4400
21     O21    -4.6675   -0.0579   -1.8239 O.co2    1 ZINC000012484958   -0.6800
22     O22    -5.1448    1.3290   -3.6089 O.co2    1 ZINC000012484958   -0.7100
23     H23     2.0398    0.4942   -0.3699 H        1 ZINC000012484958    0.0500
24     H24     0.8468    1.7258   -0.8477 H        1 ZINC000012484958    0.0500
25     H25     1.2860    1.5298    0.8660 H        1 ZINC000012484958    0.0800
26     H26    -0.1224   -1.7674    1.3252 H        1 ZINC000012484958    0.1100
27     H27    -0.4890   -0.5168    3.3892 H        1 ZINC000012484958    0.1100
28     H28    -3.0302    1.2787    1.7560 H        1 ZINC000012484958    0.0500
29     H29    -2.4584    1.9128    0.1942 H        1 ZINC000012484958    0.0600
30     H30    -1.8139    0.3764    0.8207 H        1 ZINC000012484958    0.1100
31     H31    -0.6840    3.9185    0.7325 H        1 ZINC000012484958    0.0700
32     H32    -2.0776    3.9927    1.8334 H        1 ZINC000012484958    0.0700
33     H33    -0.0180    5.2713    2.6191 H        1 ZINC000012484958    0.0600
34     H34    -0.6349    4.0626    3.7762 H        1 ZINC000012484958    0.0600
35     H35     1.5803    3.4952    1.7523 H        1 ZINC000012484958    0.0600
36     H36     1.8833    3.9816    3.4411 H        1 ZINC000012484958    0.0600
37     H37    -0.2906    2.5255    4.9037 H        1 ZINC000012484958    0.0600
38     H38     0.5964    0.9915    5.0720 H        1 ZINC000012484958    0.0500
39     H39     1.4520    2.5402    5.2663 H        1 ZINC000012484958    0.0500
40     H40     3.0467    1.6024    3.6060 H        1 ZINC000012484958    0.0500
41     H41     2.0601    0.1800    3.1913 H        1 ZINC000012484958    0.0600
42     H42     2.5345    1.3347    1.9225 H        1 ZINC000012484958    0.0600
43     H43    -0.7108    0.2534   -1.8855 H        1 ZINC000012484958    0.1100
44     H44    -2.0879   -1.5873    0.2045 H        1 ZINC000012484958    0.1100
45     H45    -3.5795   -2.0998   -1.6810 H        1 ZINC000012484958    0.1200
46     H46    -1.3381   -2.3855   -4.3213 H        1 ZINC000012484958    0.0700
47     H47    -0.8481   -0.6875   -4.5333 H        1 ZINC000012484958    0.0600
48     H48    -0.3588   -1.5792   -3.0726 H        1 ZINC000012484958    0.0700
49     H49    -3.0736    0.1983   -4.7519 H        1 ZINC000012484958    0.1100
@<TRIPOS>BOND
1     1     2     1
2     1     23    1
3     1     24    1
4     1     25    1
5     2     3     1
6     2     14    2
7     3     4     2
8     3     26    1
9     4     5     1
10    4     27    1
11    5     11    1
12    5     6     2
13    6     7     1
14    6     8     1
15    7     28    1
16    7     29    1
17    7     30    1
18    8     9     1
19    8     31    1
20    8     32    1
21    9     10    1
22    9     33    1
23    9     34    1
24    10    11    1
25    10    35    1
26    10    36    1
27    11    12    1
28    11    13    1
29    12    37    1
30    12    38    1
31    12    39    1
32    13    40    1
33    13    41    1
34    13    42    1
35    14    15    1
36    14    43    1
37    15    16    2
38    15    44    1
39    16    17    1
40    16    45    1
41    17    18    1
42    17    19    2
43    18    46    1
44    18    47    1
45    18    48    1
46    19    20    1
47    19    49    1
48    20    21    ar
49    20    22    ar
@<TRIPOS>SUBSTRUCTURE
1   ZINC000012484958 1     RESIDUE    1   A     ZIN   1
