@<TRIPOS>MOLECULE
ZINC000036701290
66    70    1     0     0
SMALL
USER_CHARGES
@<TRIPOS>ATOM
1      C1      0.5632    1.4692    0.1270 C.3      1 ZINC000036701290   -0.1300
2      C2      0.5763   -0.0366    0.0686 C.ar     1 ZINC000036701290   -0.0200
3      C3      0.0680   -0.6874   -1.0369 C.ar     1 ZINC000036701290   -0.1300
4      C4      0.0755   -2.0673   -1.0988 C.ar     1 ZINC000036701290   -0.0700
5      C5      0.5984   -2.8152   -0.0412 C.ar     1 ZINC000036701290   -0.1500
6      C6      0.6050   -4.2920   -0.1106 C.2      1 ZINC000036701290    0.5700
7      O7      1.0604   -4.9417    0.8104 O.2      1 ZINC000036701290   -0.5100
8      N8      0.1061   -4.9179   -1.1949 N.am     1 ZINC000036701290   -0.6700
9      C9      0.2024   -6.3087   -1.3056 C.ar     1 ZINC000036701290    0.1500
10     C10     0.0923   -7.1061   -0.1740 C.ar     1 ZINC000036701290   -0.0900
11     C11     0.1879   -8.4794   -0.2867 C.ar     1 ZINC000036701290   -0.1000
12     C12     0.3931   -9.0604   -1.5245 C.ar     1 ZINC000036701290   -0.0500
13     C13     0.4965  -10.5591   -1.6437 C.3      1 ZINC000036701290    0.0700
14     N14    -0.7439  -11.0908   -2.2240 N.3      1 ZINC000036701290   -0.5300
15     C15    -1.9194  -10.6126   -1.4829 C.3      1 ZINC000036701290    0.0600
16     C16    -3.1912  -11.1227   -2.1646 C.3      1 ZINC000036701290    0.0600
17     N17    -3.1634  -12.5913   -2.2116 N.3      1 ZINC000036701290   -0.5500
18     C18    -4.4037  -13.1230   -2.7919 C.3      1 ZINC000036701290    0.0300
19     C19    -1.9879  -13.0695   -2.9527 C.3      1 ZINC000036701290    0.0600
20     C20    -0.7161  -12.5593   -2.2710 C.3      1 ZINC000036701290    0.0600
21     C21     0.5032   -8.2691   -2.6534 C.ar     1 ZINC000036701290   -0.1400
22     C22     0.7269   -8.9066   -4.0005 C.3      1 ZINC000036701290    0.5100
23     F23     0.9134   -7.9090   -4.9634 F        1 ZINC000036701290   -0.1800
24     F24     1.8624   -9.7220   -3.9478 F        1 ZINC000036701290   -0.1800
25     F25    -0.3877   -9.6806   -4.3409 F        1 ZINC000036701290   -0.1500
26     C26     0.4028   -6.8959   -2.5484 C.ar     1 ZINC000036701290   -0.1000
27     C27     1.1142   -2.1669    1.0787 C.ar     1 ZINC000036701290   -0.0200
28     C28     1.1091   -0.7722    1.1332 C.ar     1 ZINC000036701290    0.0000
29     C29     1.6374   -0.0964    2.2798 C.1      1 ZINC000036701290   -0.0900
30     C30     2.0706    0.4577    3.2198 C.1      1 ZINC000036701290   -0.0800
31     C31     2.5988    1.1335    4.3665 C.2      1 ZINC000036701290    0.0900
32     C32     3.1519    0.5460    5.4922 C.2      1 ZINC000036701290    0.0700
33     N33     3.5223    1.5107    6.3243 N.2      1 ZINC000036701290   -0.4600
34     C34     3.2359    2.6938    5.7919 C.2      1 ZINC000036701290    0.1800
35     C35     3.4193    4.0103    6.2522 C.2      1 ZINC000036701290    0.0000
36     C36     3.0171    5.0504    5.4690 C.2      1 ZINC000036701290   -0.1800
37     C37     2.4288    4.8061    4.2225 C.2      1 ZINC000036701290    0.1400
38     N38     2.2558    3.5845    3.7906 N.2      1 ZINC000036701290   -0.2600
39     N39     2.6618    2.4920    4.5627 N.pl3    1 ZINC000036701290   -0.2600
40     H40     1.4856    1.8576   -0.3047 H        1 ZINC000036701290    0.0800
41     H41    -0.2894    1.8473   -0.4371 H        1 ZINC000036701290    0.0800
42     H42     0.4839    1.7919    1.1651 H        1 ZINC000036701290    0.0700
43     H43    -0.3381   -0.1149   -1.8578 H        1 ZINC000036701290    0.1400
44     H44    -0.3245   -2.5695   -1.9673 H        1 ZINC000036701290    0.1300
45     H45    -0.3198   -4.4037   -1.8986 H        1 ZINC000036701290    0.4100
46     H46    -0.0677   -6.6529    0.7932 H        1 ZINC000036701290    0.1500
47     H47     0.1027   -9.1001    0.5930 H        1 ZINC000036701290    0.1400
48     H48     1.3378  -10.8151   -2.2877 H        1 ZINC000036701290    0.1000
49     H49     0.6502  -10.9925   -0.6555 H        1 ZINC000036701290    0.0500
50     H50    -1.8806  -10.9858   -0.4595 H        1 ZINC000036701290    0.0400
51     H51    -1.9243   -9.5227   -1.4729 H        1 ZINC000036701290    0.0800
52     H52    -4.0635  -10.7934   -1.6001 H        1 ZINC000036701290    0.0800
53     H53    -3.2436  -10.7274   -3.1790 H        1 ZINC000036701290    0.0400
54     H54    -4.5222  -12.7430   -3.8066 H        1 ZINC000036701290    0.0300
55     H55    -4.3566  -14.2117   -2.8147 H        1 ZINC000036701290    0.0700
56     H56    -5.2527  -12.8087   -2.1848 H        1 ZINC000036701290    0.0700
57     H57    -1.9830  -14.1594   -2.9627 H        1 ZINC000036701290    0.0800
58     H58    -2.0267  -12.6962   -3.9761 H        1 ZINC000036701290    0.0400
59     H59     0.1562  -12.8887   -2.8355 H        1 ZINC000036701290    0.0800
60     H60    -0.6637  -12.9547   -1.2566 H        1 ZINC000036701290    0.0500
61     H61     0.4889   -6.2785   -3.4304 H        1 ZINC000036701290    0.1400
62     H62     1.5194   -2.7406    1.8992 H        1 ZINC000036701290    0.1400
63     H63     3.2623   -0.5147    5.6633 H        1 ZINC000036701290    0.2000
64     H64     3.8730    4.1945    7.2148 H        1 ZINC000036701290    0.1700
65     H65     3.1524    6.0659    5.8110 H        1 ZINC000036701290    0.1600
66     H66     2.1133    5.6377    3.6098 H        1 ZINC000036701290    0.2000
@<TRIPOS>BOND
1     1     2     1
2     1     40    1
3     1     41    1
4     1     42    1
5     2     28    ar
6     2     3     ar
7     3     4     ar
8     3     43    1
9     4     5     ar
10    4     44    1
11    5     6     1
12    5     27    ar
13    6     7     2
14    6     8     am
15    8     9     1
16    8     45    1
17    9     26    ar
18    9     10    ar
19    10    11    ar
20    10    46    1
21    11    12    ar
22    11    47    1
23    12    13    1
24    12    21    ar
25    13    14    1
26    13    48    1
27    13    49    1
28    14    20    1
29    14    15    1
30    15    16    1
31    15    50    1
32    15    51    1
33    16    17    1
34    16    52    1
35    16    53    1
36    17    18    1
37    17    19    1
38    18    54    1
39    18    55    1
40    18    56    1
41    19    20    1
42    19    57    1
43    19    58    1
44    20    59    1
45    20    60    1
46    21    22    1
47    21    26    ar
48    22    23    1
49    22    24    1
50    22    25    1
51    26    61    1
52    27    28    ar
53    27    62    1
54    28    29    1
55    29    30    3
56    30    31    1
57    31    39    1
58    31    32    2
59    32    33    1
60    32    63    1
61    33    34    2
62    34    39    1
63    34    35    1
64    35    36    2
65    35    64    1
66    36    37    1
67    36    65    1
68    37    38    2
69    37    66    1
70    38    39    1
@<TRIPOS>SUBSTRUCTURE
1   ZINC000036701290 1     RESIDUE    1   A     ZIN   1
