@<TRIPOS>MOLECULE
ZINC000022448696
93    97    1     0     0
SMALL
USER_CHARGES
@<TRIPOS>ATOM
1      C1      2.4936   -0.5641    1.6934 C.3      1 ZINC000022448696   -0.1700
2      C2      1.9717   -1.8279    1.0069 C.3      1 ZINC000022448696    0.1700
3      C3      2.9819   -2.9622    1.1905 C.3      1 ZINC000022448696   -0.1700
4      C4      0.6335   -2.2310    1.6297 C.3      1 ZINC000022448696   -0.1600
5      N5      1.7859   -1.5660   -0.4224 N.am     1 ZINC000022448696   -0.6900
6      C6      2.8355   -1.1931   -1.1812 C.2      1 ZINC000022448696    0.5100
7      O7      3.9338   -1.0744   -0.6807 O.2      1 ZINC000022448696   -0.5200
8      C8      2.6444   -0.9237   -2.6516 C.3      1 ZINC000022448696    0.0100
9      H9      1.7184   -0.3687   -2.8019 H        1 ZINC000022448696    0.1600
10     C10     2.5717   -2.2518   -3.4083 C.3      1 ZINC000022448696    0.0400
11     N11     2.4046   -1.9858   -4.8440 N.3      1 ZINC000022448696   -0.5300
12     C12     2.2736   -3.2386   -5.5998 C.3      1 ZINC000022448696    0.1000
13     C13     2.3511   -2.9452   -7.0759 C.ar     1 ZINC000022448696   -0.1600
14     C14     1.2016   -2.6586   -7.7959 C.ar     1 ZINC000022448696   -0.0500
15     C15     1.3209   -2.3944   -9.1520 C.ar     1 ZINC000022448696   -0.1700
16     C16     2.5726   -2.4254   -9.7365 C.ar     1 ZINC000022448696    0.1100
17     N17     3.6450   -2.7019   -9.0203 N.ar     1 ZINC000022448696   -0.4800
18     C18     3.5699   -2.9528   -7.7280 C.ar     1 ZINC000022448696    0.1000
19     C19     3.5175   -1.1747   -5.3576 C.3      1 ZINC000022448696    0.0200
20     C20     3.5824    0.1445   -4.5848 C.3      1 ZINC000022448696   -0.0200
21     N21     3.7757   -0.1341   -3.1557 N.4      1 ZINC000022448696   -0.3600
22     H22     4.6316   -0.6528   -3.0271 H        1 ZINC000022448696    0.4300
23     C23     3.8557    1.1329   -2.4166 C.3      1 ZINC000022448696   -0.0500
24     C24     5.1318    1.8766   -2.8158 C.3      1 ZINC000022448696    0.0900
25     H25     5.9897    1.2141   -2.7005 H        1 ZINC000022448696    0.1300
26     O26     5.0328    2.2948   -4.1787 O.3      1 ZINC000022448696   -0.5400
27     C27     5.3099    3.1025   -1.9179 C.3      1 ZINC000022448696   -0.1300
28     C28     6.6105    3.8195   -2.2856 C.3      1 ZINC000022448696   -0.0900
29     H29     7.4406    3.1149   -2.2351 H        1 ZINC000022448696    0.0900
30     C30     6.5011    4.3778   -3.7059 C.3      1 ZINC000022448696   -0.0900
31     C31     7.7761    5.0978   -4.0622 C.ar     1 ZINC000022448696   -0.1000
32     C32     7.8661    6.4672   -3.8962 C.ar     1 ZINC000022448696   -0.1000
33     C33     9.0357    7.1276   -4.2231 C.ar     1 ZINC000022448696   -0.1100
34     C34    10.1154    6.4186   -4.7154 C.ar     1 ZINC000022448696   -0.1100
35     C35    10.0257    5.0491   -4.8805 C.ar     1 ZINC000022448696   -0.1200
36     C36     8.8576    4.3880   -4.5496 C.ar     1 ZINC000022448696   -0.1200
37     C37     6.8516    4.9499   -1.3186 C.2      1 ZINC000022448696    0.5200
38     O38     5.9235    5.4291   -0.7023 O.2      1 ZINC000022448696   -0.5400
39     N39     8.0987    5.4284   -1.1388 N.am     1 ZINC000022448696   -0.7000
40     C40     8.3566    6.4291   -0.1003 C.3      1 ZINC000022448696    0.1900
41     H41     7.4871    7.0739    0.0270 H        1 ZINC000022448696    0.1100
42     C42     8.7036    5.7510    1.2078 C.ar     1 ZINC000022448696   -0.1100
43     C43     8.1234    4.6619    1.8355 C.ar     1 ZINC000022448696   -0.0900
44     C44     8.6167    4.2125    3.0451 C.ar     1 ZINC000022448696   -0.1200
45     C45     9.6930    4.8514    3.6312 C.ar     1 ZINC000022448696   -0.1100
46     C46    10.2736    5.9380    3.0062 C.ar     1 ZINC000022448696   -0.1100
47     C47     9.7804    6.3901    1.7941 C.ar     1 ZINC000022448696   -0.0900
48     C48    10.2304    7.5408    0.9197 C.3      1 ZINC000022448696   -0.1200
49     C49     9.5986    7.2703   -0.4638 C.3      1 ZINC000022448696    0.1000
50     H50     9.3098    8.2037   -0.9470 H        1 ZINC000022448696    0.0800
51     O51    10.4928    6.5264   -1.2939 O.3      1 ZINC000022448696   -0.5500
52     H52     3.4469   -0.2769    1.2498 H        1 ZINC000022448696    0.0800
53     H53     1.7738    0.2440    1.5627 H        1 ZINC000022448696    0.0600
54     H54     2.6318   -0.7590    2.7569 H        1 ZINC000022448696    0.0800
55     H55     3.1201   -3.1571    2.2540 H        1 ZINC000022448696    0.0700
56     H56     2.6101   -3.8626    0.7014 H        1 ZINC000022448696    0.0600
57     H57     3.9352   -2.6751    0.7468 H        1 ZINC000022448696    0.0800
58     H58    -0.0862   -1.4229    1.4989 H        1 ZINC000022448696    0.0700
59     H59     0.2617   -3.1314    1.1406 H        1 ZINC000022448696    0.0700
60     H60     0.7717   -2.4259    2.6932 H        1 ZINC000022448696    0.0800
61     H61     0.9075   -1.6609   -0.8228 H        1 ZINC000022448696    0.4100
62     H62     3.4921   -2.8130   -3.2471 H        1 ZINC000022448696    0.0700
63     H63     1.7233   -2.8315   -3.0446 H        1 ZINC000022448696    0.1300
64     H64     3.0801   -3.9169   -5.3214 H        1 ZINC000022448696    0.0600
65     H65     1.3139   -3.7021   -5.3714 H        1 ZINC000022448696    0.1000
66     H66     0.2361   -2.6419   -7.3122 H        1 ZINC000022448696    0.1400
67     H67     0.4464   -2.1677   -9.7439 H        1 ZINC000022448696    0.1400
68     H68     2.6739   -2.2211  -10.7921 H        1 ZINC000022448696    0.1600
69     H69     4.4700   -3.1754   -7.1743 H        1 ZINC000022448696    0.1500
70     H70     4.4535   -1.7182   -5.2286 H        1 ZINC000022448696    0.0600
71     H71     3.3592   -0.9687   -6.4162 H        1 ZINC000022448696    0.1300
72     H72     4.4160    0.7415   -4.9546 H        1 ZINC000022448696    0.1800
73     H73     2.6516    0.6940   -4.7252 H        1 ZINC000022448696    0.1300
74     H74     2.9875    1.7476   -2.6542 H        1 ZINC000022448696    0.1300
75     H75     3.8742    0.9285   -1.3461 H        1 ZINC000022448696    0.1500
76     H76     4.2898    2.8880   -4.3551 H        1 ZINC000022448696    0.3900
77     H77     4.4686    3.7811   -2.0585 H        1 ZINC000022448696    0.0900
78     H78     5.3514    2.7864   -0.8755 H        1 ZINC000022448696    0.0900
79     H79     6.3383    3.5589   -4.4066 H        1 ZINC000022448696    0.1200
80     H80     5.6638    5.0736   -3.7593 H        1 ZINC000022448696    0.0700
81     H81     7.0226    7.0211   -3.5116 H        1 ZINC000022448696    0.1100
82     H82     9.1058    8.1976   -4.0941 H        1 ZINC000022448696    0.1200
83     H83    11.0289    6.9347   -4.9714 H        1 ZINC000022448696    0.1200
84     H84    10.8692    4.4952   -5.2655 H        1 ZINC000022448696    0.1200
85     H85     8.7875    3.3181   -4.6786 H        1 ZINC000022448696    0.1200
86     H86     8.8254    5.1103   -1.6969 H        1 ZINC000022448696    0.4100
87     H87     7.2823    4.1621    1.3781 H        1 ZINC000022448696    0.1100
88     H88     8.1614    3.3631    3.5325 H        1 ZINC000022448696    0.1200
89     H89    10.0797    4.5016    4.5770 H        1 ZINC000022448696    0.1300
90     H90    11.1146    6.4367    3.4648 H        1 ZINC000022448696    0.1200
91     H91     9.8664    8.4863    1.3218 H        1 ZINC000022448696    0.0900
92     H92    11.3176    7.5550    0.8431 H        1 ZINC000022448696    0.0900
93     H93    11.3266    6.9797   -1.4789 H        1 ZINC000022448696    0.3900
@<TRIPOS>BOND
1     1     2     1
2     1     52    1
3     1     53    1
4     1     54    1
5     2     3     1
6     2     4     1
7     2     5     1
8     3     55    1
9     3     56    1
10    3     57    1
11    4     58    1
12    4     59    1
13    4     60    1
14    5     6     am
15    5     61    1
16    6     7     2
17    6     8     1
18    8     9     1
19    8     21    1
20    8     10    1
21    10    11    1
22    10    62    1
23    10    63    1
24    11    12    1
25    11    19    1
26    12    13    1
27    12    64    1
28    12    65    1
29    13    18    ar
30    13    14    ar
31    14    15    ar
32    14    66    1
33    15    16    ar
34    15    67    1
35    16    17    ar
36    16    68    1
37    17    18    ar
38    18    69    1
39    19    20    1
40    19    70    1
41    19    71    1
42    20    21    1
43    20    72    1
44    20    73    1
45    21    22    1
46    21    23    1
47    23    24    1
48    23    74    1
49    23    75    1
50    24    25    1
51    24    26    1
52    24    27    1
53    26    76    1
54    27    28    1
55    27    77    1
56    27    78    1
57    28    29    1
58    28    30    1
59    28    37    1
60    30    31    1
61    30    79    1
62    30    80    1
63    31    36    ar
64    31    32    ar
65    32    33    ar
66    32    81    1
67    33    34    ar
68    33    82    1
69    34    35    ar
70    34    83    1
71    35    36    ar
72    35    84    1
73    36    85    1
74    37    38    2
75    37    39    am
76    39    40    1
77    39    86    1
78    40    41    1
79    40    49    1
80    40    42    1
81    42    47    ar
82    42    43    ar
83    43    44    ar
84    43    87    1
85    44    45    ar
86    44    88    1
87    45    46    ar
88    45    89    1
89    46    47    ar
90    46    90    1
91    47    48    1
92    48    49    1
93    48    91    1
94    48    92    1
95    49    50    1
96    49    51    1
97    51    93    1
@<TRIPOS>SUBSTRUCTURE
1   ZINC000022448696 1     RESIDUE    1   A     ZIN   1
