@<TRIPOS>MOLECULE
ZINC000000005895
40    42    1     0     0
SMALL
USER_CHARGES
@<TRIPOS>ATOM
1      C1     -0.0178    1.4648    0.0101 C.3      1 ZINC000000005895   -0.0500
2      N2      0.0021   -0.0041    0.0020 N.4      1 ZINC000000005895   -0.3900
3      H3      0.4744   -0.3295   -0.8281 H        1 ZINC000000005895    0.4300
4      C4      0.7126   -0.4907    1.1921 C.3      1 ZINC000000005895   -0.0500
5      C5     -1.3761   -0.5125    0.0124 C.3      1 ZINC000000005895   -0.0100
6      C6     -2.0780   -0.1101   -1.2861 C.3      1 ZINC000000005895   -0.0600
7      C7     -3.4918   -0.6317   -1.2754 C.2      1 ZINC000000005895   -0.2000
8      C8     -3.9216   -1.7847   -1.8120 C.2      1 ZINC000000005895    0.0900
9      N9     -5.2675   -1.9218   -1.6067 N.pl3    1 ZINC000000005895   -0.5900
10     C10    -5.7489   -0.8327   -0.9154 C.ar     1 ZINC000000005895    0.1100
11     C11    -7.0112   -0.4709   -0.4570 C.ar     1 ZINC000000005895   -0.1200
12     C12    -7.1784    0.7164    0.2219 C.ar     1 ZINC000000005895   -0.0600
13     C13    -6.0989    1.5573    0.4539 C.ar     1 ZINC000000005895   -0.1200
14     C14    -6.3056    2.8507    1.1991 C.3      1 ZINC000000005895    0.1700
15     N15    -6.1243    2.6216    2.6347 N.pl3    1 ZINC000000005895   -0.3800
16     C16    -5.2866    3.2781    3.4559 C.2      1 ZINC000000005895    0.2500
17     N17    -5.4222    2.7791    4.6577 N.2      1 ZINC000000005895   -0.5400
18     C18    -6.3330    1.8068    4.6432 C.2      1 ZINC000000005895    0.2000
19     N19    -6.7955    1.6765    3.4276 N.2      1 ZINC000000005895   -0.3100
20     C20    -4.8499    1.2214    0.0124 C.ar     1 ZINC000000005895   -0.0600
21     C21    -4.6566    0.0203   -0.6720 C.ar     1 ZINC000000005895   -0.1000
22     H22     1.0047    1.8421    0.0024 H        1 ZINC000000005895    0.1200
23     H23    -0.5450    1.8259   -0.8730 H        1 ZINC000000005895    0.1200
24     H24    -0.5280    1.8163    0.9069 H        1 ZINC000000005895    0.1200
25     H25     0.2024   -0.1392    2.0889 H        1 ZINC000000005895    0.1200
26     H26     0.7273   -1.5806    1.1861 H        1 ZINC000000005895    0.1200
27     H27     1.7352   -0.1134    1.1844 H        1 ZINC000000005895    0.1200
28     H28    -1.3618   -1.5992    0.0960 H        1 ZINC000000005895    0.1300
29     H29    -1.9129   -0.0898    0.8617 H        1 ZINC000000005895    0.1300
30     H30    -2.0923    0.9766   -1.3697 H        1 ZINC000000005895    0.0900
31     H31    -1.5412   -0.5328   -2.1354 H        1 ZINC000000005895    0.0900
32     H32    -3.2975   -2.4983   -2.3295 H        1 ZINC000000005895    0.1700
33     H33    -5.8027   -2.6742   -1.9039 H        1 ZINC000000005895    0.4200
34     H34    -7.8576   -1.1183   -0.6329 H        1 ZINC000000005895    0.1300
35     H35    -8.1595    0.9958    0.5766 H        1 ZINC000000005895    0.1300
36     H36    -5.5808    3.5884    0.8545 H        1 ZINC000000005895    0.1100
37     H37    -7.3147    3.2191    1.0146 H        1 ZINC000000005895    0.1000
38     H38    -4.6179    4.0776    3.1728 H        1 ZINC000000005895    0.2200
39     H39    -6.6422    1.2237    5.4981 H        1 ZINC000000005895    0.2200
40     H40    -4.0146    1.8807    0.1966 H        1 ZINC000000005895    0.1200
@<TRIPOS>BOND
1     1     2     1
2     1     22    1
3     1     23    1
4     1     24    1
5     2     3     1
6     2     4     1
7     2     5     1
8     4     25    1
9     4     26    1
10    4     27    1
11    5     6     1
12    5     28    1
13    5     29    1
14    6     7     1
15    6     30    1
16    6     31    1
17    7     21    1
18    7     8     2
19    8     9     1
20    8     32    1
21    9     10    1
22    9     33    1
23    10    21    ar
24    10    11    ar
25    11    12    ar
26    11    34    1
27    12    13    ar
28    12    35    1
29    13    14    1
30    13    20    ar
31    14    15    1
32    14    36    1
33    14    37    1
34    15    19    1
35    15    16    1
36    16    17    2
37    16    38    1
38    17    18    1
39    18    19    2
40    18    39    1
41    20    21    ar
42    20    40    1
@<TRIPOS>SUBSTRUCTURE
1   ZINC000000005895 1     RESIDUE    1   A     ZIN   1
