@<TRIPOS>MOLECULE
ZINC000003814395
51    54    1     0     0
SMALL
USER_CHARGES
@<TRIPOS>ATOM
1      C1      0.7210   -1.3354   -0.0236 C.1      1 ZINC000003814395   -0.1800
2      C2      0.5592   -0.1737   -0.0725 C.1      1 ZINC000003814395   -0.2100
3      C3      0.3565    1.2830   -0.1338 C.3      1 ZINC000003814395    0.2500
4      O4     -0.5878    1.6929    0.8573 O.3      1 ZINC000003814395   -0.5300
5      C5     -0.1293    1.6983   -1.5449 C.3      1 ZINC000003814395   -0.1400
6      C6      0.9897    2.5905   -2.1483 C.3      1 ZINC000003814395   -0.1100
7      C7      2.2370    2.1450   -1.3769 C.3      1 ZINC000003814395   -0.0800
8      H8      2.5846    1.1789   -1.7431 H        1 ZINC000003814395    0.0800
9      C9      3.3830    3.1397   -1.3439 C.3      1 ZINC000003814395   -0.0800
10     H10     3.0423    4.0869   -0.9257 H        1 ZINC000003814395    0.0900
11     C11     3.9205    3.3568   -2.7614 C.3      1 ZINC000003814395   -0.1100
12     C12     5.0266    4.4134   -2.7223 C.3      1 ZINC000003814395   -0.1000
13     C13     6.0857    3.9756   -1.7271 C.2      1 ZINC000003814395   -0.0200
14     C14     7.3588    4.0167   -2.1194 C.2      1 ZINC000003814395   -0.2400
15     C15     8.4255    3.6197   -1.1940 C.2      1 ZINC000003814395    0.3900
16     O16     9.5203    3.2782   -1.5902 O.2      1 ZINC000003814395   -0.4600
17     C17     8.0881    3.6591    0.2836 C.3      1 ZINC000003814395   -0.1700
18     C18     6.7642    2.9193    0.4701 C.3      1 ZINC000003814395   -0.1100
19     C19     5.6537    3.5358   -0.3623 C.3      1 ZINC000003814395   -0.0600
20     H20     5.2872    4.4171    0.1641 H        1 ZINC000003814395    0.0900
21     C21     4.4890    2.5436   -0.4612 C.3      1 ZINC000003814395   -0.0700
22     H22     4.8423    1.6286   -0.9366 H        1 ZINC000003814395    0.0700
23     C23     3.9932    2.2138    0.9437 C.3      1 ZINC000003814395   -0.1200
24     C24     2.7456    1.3170    0.9108 C.3      1 ZINC000003814395   -0.1000
25     C25     1.6822    2.0100    0.0666 C.3      1 ZINC000003814395   -0.0400
26     C26     1.4345    3.4220    0.6014 C.3      1 ZINC000003814395   -0.1100
27     C27     1.0725    3.3487    2.0862 C.3      1 ZINC000003814395   -0.1600
28     H28     0.8656   -2.3745    0.0202 H        1 ZINC000003814395    0.2200
29     H29    -1.4567    1.2780    0.7681 H        1 ZINC000003814395    0.3700
30     H30    -0.2778    0.8141   -2.1647 H        1 ZINC000003814395    0.0700
31     H31    -1.0583    2.2633   -1.4695 H        1 ZINC000003814395    0.0800
32     H32     1.1056    2.3956   -3.2144 H        1 ZINC000003814395    0.0700
33     H33     0.7812    3.6451   -1.9683 H        1 ZINC000003814395    0.0800
34     H34     4.3248    2.4201   -3.1451 H        1 ZINC000003814395    0.0700
35     H35     3.1130    3.6985   -3.4089 H        1 ZINC000003814395    0.0700
36     H36     5.4733    4.5116   -3.7117 H        1 ZINC000003814395    0.0800
37     H37     4.6070    5.3703   -2.4121 H        1 ZINC000003814395    0.0800
38     H38     7.6052    4.3421   -3.1193 H        1 ZINC000003814395    0.1300
39     H39     8.8728    3.1645    0.8561 H        1 ZINC000003814395    0.0900
40     H40     7.9841    4.6931    0.6124 H        1 ZINC000003814395    0.1000
41     H41     6.8941    1.8783    0.1742 H        1 ZINC000003814395    0.0700
42     H42     6.4819    2.9557    1.5223 H        1 ZINC000003814395    0.0800
43     H43     4.7854    1.7008    1.4889 H        1 ZINC000003814395    0.0700
44     H44     3.7503    3.1416    1.4618 H        1 ZINC000003814395    0.0700
45     H45     2.9847    0.3657    0.4355 H        1 ZINC000003814395    0.0600
46     H46     2.3844    1.1460    1.9249 H        1 ZINC000003814395    0.0700
47     H47     2.3364    4.0212    0.4765 H        1 ZINC000003814395    0.0700
48     H48     0.6141    3.8808    0.0496 H        1 ZINC000003814395    0.0600
49     H49     1.0062    4.3573    2.4942 H        1 ZINC000003814395    0.0400
50     H50     0.1122    2.8462    2.2017 H        1 ZINC000003814395    0.0800
51     H51     1.8412    2.7905    2.6205 H        1 ZINC000003814395    0.0500
@<TRIPOS>BOND
1     1     2     3
2     1     28    1
3     2     3     1
4     3     25    1
5     3     4     1
6     3     5     1
7     4     29    1
8     5     6     1
9     5     30    1
10    5     31    1
11    6     7     1
12    6     32    1
13    6     33    1
14    7     8     1
15    7     25    1
16    7     9     1
17    9     10    1
18    9     21    1
19    9     11    1
20    11    12    1
21    11    34    1
22    11    35    1
23    12    13    1
24    12    36    1
25    12    37    1
26    13    19    1
27    13    14    2
28    14    15    1
29    14    38    1
30    15    16    2
31    15    17    1
32    17    18    1
33    17    39    1
34    17    40    1
35    18    19    1
36    18    41    1
37    18    42    1
38    19    20    1
39    19    21    1
40    21    22    1
41    21    23    1
42    23    24    1
43    23    43    1
44    23    44    1
45    24    25    1
46    24    45    1
47    24    46    1
48    25    26    1
49    26    27    1
50    26    47    1
51    26    48    1
52    27    49    1
53    27    50    1
54    27    51    1
@<TRIPOS>SUBSTRUCTURE
1   ZINC000003814395 1     RESIDUE    1   A     ZIN   1
