@<TRIPOS>MOLECULE
ZINC000002522648
37    38    1     0     0
SMALL
USER_CHARGES
@<TRIPOS>ATOM
1      C1     -0.0176    1.4478    0.0100 C.3      1 ZINC000002522648    0.0300
2      O2      0.0021   -0.0041    0.0020 O.3      1 ZINC000002522648   -0.3900
3      C3     -1.1855   -0.6297    0.0100 C.2      1 ZINC000002522648    0.4400
4      O4     -2.2076    0.0145    0.0232 O.2      1 ZINC000002522648   -0.4400
5      C5     -1.2439   -2.1355    0.0025 C.3      1 ZINC000002522648   -0.0400
6      H6     -0.7361   -2.5233    0.8856 H        1 ZINC000002522648    0.1400
7      C7     -2.6831   -2.5824    0.0138 C.ar     1 ZINC000002522648   -0.1000
8      C8     -3.5291   -2.2149   -1.0158 C.ar     1 ZINC000002522648   -0.0900
9      C9     -4.8492   -2.6248   -1.0054 C.ar     1 ZINC000002522648   -0.1100
10     C10    -5.3232   -3.4027    0.0344 C.ar     1 ZINC000002522648   -0.0900
11     C11    -4.4770   -3.7710    1.0635 C.ar     1 ZINC000002522648   -0.1100
12     C12    -3.1558   -3.3646    1.0509 C.ar     1 ZINC000002522648   -0.1000
13     C13    -0.5550   -2.6664   -1.2563 C.3      1 ZINC000002522648    0.0400
14     H14    -1.0631   -2.2784   -2.1391 H        1 ZINC000002522648    0.1400
15     C15    -0.6160   -4.1953   -1.2641 C.3      1 ZINC000002522648   -0.1400
16     C16     0.0744   -4.7218   -2.5256 C.3      1 ZINC000002522648   -0.1400
17     C17     1.5130   -4.1982   -2.5646 C.3      1 ZINC000002522648   -0.1500
18     C18     1.4951   -2.6691   -2.5086 C.3      1 ZINC000002522648   -0.0100
19     N19     0.8463   -2.2295   -1.2675 N.4      1 ZINC000002522648   -0.5100
20     H20     0.8836   -1.2230   -1.2079 H        1 ZINC000002522648    0.4300
21     H21     1.3284   -2.6303   -0.4769 H        1 ZINC000002522648    0.4300
22     H22     1.0050    1.8251    0.0023 H        1 ZINC000002522648    0.1200
23     H23    -0.5448    1.8089   -0.8731 H        1 ZINC000002522648    0.0700
24     H24    -0.5278    1.7993    0.9068 H        1 ZINC000002522648    0.0800
25     H25    -3.1588   -1.6072   -1.8282 H        1 ZINC000002522648    0.1200
26     H26    -5.5104   -2.3371   -1.8095 H        1 ZINC000002522648    0.1300
27     H27    -6.3548   -3.7224    0.0429 H        1 ZINC000002522648    0.1300
28     H28    -4.8474   -4.3784    1.8761 H        1 ZINC000002522648    0.1300
29     H29    -2.4946   -3.6524    1.8550 H        1 ZINC000002522648    0.1300
30     H30    -0.1079   -4.5844   -0.3818 H        1 ZINC000002522648    0.0900
31     H31    -1.6571   -4.5181   -1.2573 H        1 ZINC000002522648    0.1200
32     H32     0.0835   -5.8117   -2.5082 H        1 ZINC000002522648    0.1000
33     H33    -0.4639   -4.3747   -3.4075 H        1 ZINC000002522648    0.0800
34     H34     2.0653   -4.5873   -1.7093 H        1 ZINC000002522648    0.0900
35     H35     1.9936   -4.5230   -3.4874 H        1 ZINC000002522648    0.1100
36     H36     2.5178   -2.2930   -2.5365 H        1 ZINC000002522648    0.1400
37     H37     0.9428   -2.2811   -3.3645 H        1 ZINC000002522648    0.1300
@<TRIPOS>BOND
1     1     2     1
2     1     22    1
3     1     23    1
4     1     24    1
5     2     3     1
6     3     4     2
7     3     5     1
8     5     6     1
9     5     7     1
10    5     13    1
11    7     12    ar
12    7     8     ar
13    8     9     ar
14    8     25    1
15    9     10    ar
16    9     26    1
17    10    11    ar
18    10    27    1
19    11    12    ar
20    11    28    1
21    12    29    1
22    13    14    1
23    13    19    1
24    13    15    1
25    15    16    1
26    15    30    1
27    15    31    1
28    16    17    1
29    16    32    1
30    16    33    1
31    17    18    1
32    17    34    1
33    17    35    1
34    18    19    1
35    18    36    1
36    18    37    1
37    19    20    1
38    19    21    1
@<TRIPOS>SUBSTRUCTURE
1   ZINC000002522648 1     RESIDUE    1   A     ZIN   1
