@<TRIPOS>MOLECULE
ZINC000005456939
49   49    0    0    0
SMALL
USER_CHARGES
NO_NAME
@<TRIPOS>ATOM
1 C1       -0.5603     1.6487     1.1485 C.3    1 <0>      -0.1100
2 C2       -0.1521     0.2117     0.9494 C.2    1 <0>      -0.1600
3 C3       -0.2180    -0.6930     2.0234 C.2    1 <0>      -0.0700
4 C4       -0.6499    -0.2718     3.2412 C.2    1 <0>      -0.1600
5 C5       -0.8373    -1.2076     4.2894 C.2    1 <0>      -0.0700
6 C6       -1.6640    -2.2189     4.0825 C.2    1 <0>      -0.1300
7 C7       -2.3461    -2.3170     2.7422 C.3    1 <0>      -0.1200
8 C8       -1.9609    -3.2749     5.1072 C.3    1 <0>      -0.0800
9 C9       -0.8925    -3.2611     6.2023 C.3    1 <0>      -0.1200
10 C10      -0.7181    -1.8193     6.6949 C.3    1 <0>      -0.1100
11 C11      -0.0817    -0.9980     5.5694 C.3    1 <0>      -0.0200
12 C12       1.3741    -1.4314     5.3859 C.3    1 <0>      -0.1400
13 C13      -0.1236     0.4862     5.9385 C.3    1 <0>      -0.1400
14 C14       0.2816    -0.2113    -0.2737 C.2    1 <0>      -0.0500
15 C15       0.3474     0.6908    -1.3447 C.2    1 <0>      -0.1900
16 C16       0.6853     0.2433    -2.6019 C.2    1 <0>       0.0100
17 C17       0.8441    -1.1281    -2.8379 C.2    1 <0>      -0.0900
18 C18      -0.3418    -2.0525    -2.7364 C.3    1 <0>      -0.1100
19 C19       2.0834    -1.6317    -3.1624 C.2    1 <0>      -0.1500
20 C20       3.2108    -0.7950    -3.1336 C.2    1 <0>       0.4400
21 O21       3.1004     0.4577    -2.6887 O.co2  1 <0>      -0.6800
22 O22       4.3920    -1.2528    -3.5511 O.co2  1 <0>      -0.7100
23 H23       0.3066     2.2333     1.4564 H      1 <0>       0.0600
24 H24      -0.9539     2.0474     0.2136 H      1 <0>       0.0600
25 H25      -1.3287     1.7046     1.9195 H      1 <0>       0.0600
26 H26       0.0745    -1.7228     1.8807 H      1 <0>       0.1100
27 H27      -0.8502     0.7759     3.4104 H      1 <0>       0.1200
28 H28      -1.7369    -2.9186     2.0677 H      1 <0>       0.0600
29 H29      -3.3227    -2.7852     2.8650 H      1 <0>       0.0500
30 H30      -2.4720    -1.3180     2.3247 H      1 <0>       0.0700
31 H31      -2.9371    -3.0822     5.5522 H      1 <0>       0.0700
32 H32      -1.9722    -4.2527     4.6256 H      1 <0>       0.0700
33 H33      -1.2089    -3.8952     7.0305 H      1 <0>       0.0600
34 H34       0.0513    -3.6265     5.7976 H      1 <0>       0.0700
35 H35      -1.6905    -1.4007     6.9540 H      1 <0>       0.0600
36 H36      -0.0666    -1.8073     7.5687 H      1 <0>       0.0600
37 H37       1.4084    -2.4900     5.1286 H      1 <0>       0.0600
38 H38       1.8287    -0.8480     4.5852 H      1 <0>       0.0600
39 H39       1.9223    -1.2649     6.3131 H      1 <0>       0.0500
40 H40       0.3489     0.6325     6.9098 H      1 <0>       0.0500
41 H41       0.4107     1.0634     5.1839 H      1 <0>       0.0600
42 H42      -1.1602     0.8200     5.9847 H      1 <0>       0.0500
43 H43       0.5742    -1.2411    -0.4164 H      1 <0>       0.1100
44 H44       0.1330     1.7370    -1.1834 H      1 <0>       0.1100
45 H45       0.8279     0.9497    -3.4063 H      1 <0>       0.1200
46 H46      -0.7741    -2.1988    -3.7263 H      1 <0>       0.0700
47 H47      -0.0202    -3.0134    -2.3348 H      1 <0>       0.0600
48 H48      -1.0888    -1.6138    -2.0749 H      1 <0>       0.0700
49 H49       2.1888    -2.6703    -3.4392 H      1 <0>       0.1100
@<TRIPOS>BOND
1    1    2 1
2    1   23 1
3    1   24 1
4    1   25 1
5    2    3 1
6    2   14 2
7    3    4 2
8    3   26 1
9    4    5 1
10    4   27 1
11    5   11 1
12    5    6 2
13    6    7 1
14    6    8 1
15    7   28 1
16    7   29 1
17    7   30 1
18    8    9 1
19    8   31 1
20    8   32 1
21    9   10 1
22    9   33 1
23    9   34 1
24   10   11 1
25   10   35 1
26   10   36 1
27   11   12 1
28   11   13 1
29   12   37 1
30   12   38 1
31   12   39 1
32   13   40 1
33   13   41 1
34   13   42 1
35   14   15 1
36   14   43 1
37   15   16 2
38   15   44 1
39   16   17 1
40   16   45 1
41   17   18 1
42   17   19 2
43   18   46 1
44   18   47 1
45   18   48 1
46   19   20 1
47   19   49 1
48   20   21 ar
49   20   22 ar
