@<TRIPOS>MOLECULE
ZINC000004658562
11   10    0    0    0
SMALL
USER_CHARGES
NO_NAME
@<TRIPOS>ATOM
1 C1       -0.0187     1.5258     0.0104 C.3    1 <0>      -0.1600
2 C2        0.0021    -0.0041     0.0020 C.3    1 <0>       0.0300
3 H3        0.5123    -0.3556    -0.8948 H      1 <0>       0.0500
4 O4        0.6932    -0.4774     1.1597 O.3    1 <0>      -0.5500
5 C5       -1.4117    -0.5257     0.0127 C.2    1 <0>       0.5000
6 O6       -2.1472    -0.3129    -0.9361 O.co2  1 <0>      -0.7000
7 O7       -1.8201    -1.1605     0.9702 O.co2  1 <0>      -0.6800
8 H8        1.0039     1.9031     0.0027 H      1 <0>       0.0400
9 H9       -0.5459     1.8868    -0.8726 H      1 <0>       0.0700
10 H10      -0.5289     1.8773     0.9072 H      1 <0>       0.0500
11 H11       1.6114    -0.1800     1.2187 H      1 <0>       0.3500
@<TRIPOS>BOND
1    1    2 1
2    1    8 1
3    1    9 1
4    1   10 1
5    2    3 1
6    2    4 1
7    2    5 1
8    4   11 1
9    5    6 ar
10    5    7 ar
