@<TRIPOS>MOLECULE
ZINC000019364224
54    56    1     0     0
SMALL
USER_CHARGES
@<TRIPOS>ATOM
1      O1     -4.5128    4.5761   -4.3731 O.3      1 ZINC000019364224   -0.5700
2      C2     -3.1174    4.2736   -4.3131 C.3      1 ZINC000019364224    0.0800
3      C3     -2.8470    3.3472   -3.1258 C.3      1 ZINC000019364224    0.0600
4      O4     -3.4967    2.0931   -3.3425 O.3      1 ZINC000019364224   -0.3800
5      C5     -3.3064    1.1497   -2.2862 C.3      1 ZINC000019364224    0.0100
6      C6     -4.0419   -0.1488   -2.6234 C.3      1 ZINC000019364224    0.0600
7      N7     -3.4244   -0.7692   -3.8031 N.3      1 ZINC000019364224   -0.5300
8      C8     -1.9608   -0.8049   -3.6741 C.3      1 ZINC000019364224    0.0200
9      C9     -1.3614   -1.5103   -4.8926 C.3      1 ZINC000019364224    0.0000
10     N10    -1.7450   -0.7896   -6.1136 N.4      1 ZINC000019364224   -0.3800
11     H11    -1.4081    0.1601   -6.0633 H        1 ZINC000019364224    0.4100
12     C12    -1.1548   -1.4569   -7.2817 C.3      1 ZINC000019364224    0.1300
13     H13    -1.5181   -2.4831   -7.3360 H        1 ZINC000019364224    0.1500
14     C14     0.3466   -1.4619   -7.1519 C.ar     1 ZINC000019364224   -0.1300
15     C15     1.0010   -0.3507   -6.6540 C.ar     1 ZINC000019364224   -0.1200
16     C16     2.3782   -0.3552   -6.5350 C.ar     1 ZINC000019364224   -0.1000
17     C17     3.1010   -1.4712   -6.9133 C.ar     1 ZINC000019364224   -0.0900
18     C18     2.4465   -2.5827   -7.4103 C.ar     1 ZINC000019364224   -0.1000
19     C19     1.0690   -2.5798   -7.5254 C.ar     1 ZINC000019364224   -0.0900
20     C20    -1.5482   -0.7177   -8.5346 C.ar     1 ZINC000019364224   -0.1300
21     C21    -1.5720    0.6645   -8.5427 C.ar     1 ZINC000019364224   -0.1100
22     C22    -1.9328    1.3430   -9.6915 C.ar     1 ZINC000019364224   -0.1000
23     C23    -2.2701    0.6386  -10.8335 C.ar     1 ZINC000019364224   -0.0100
24     Cl24   -2.7228    1.4902  -12.2770 Cl       1 ZINC000019364224   -0.0400
25     C25    -2.2461   -0.7447  -10.8248 C.ar     1 ZINC000019364224   -0.1000
26     C26    -1.8797   -1.4220   -9.6770 C.ar     1 ZINC000019364224   -0.0700
27     C27    -3.2083   -0.7837   -6.2415 C.3      1 ZINC000019364224   -0.0100
28     C28    -3.8231   -0.0722   -5.0341 C.3      1 ZINC000019364224    0.0200
29     H29    -4.7575    5.1605   -5.1036 H        1 ZINC000019364224    0.3900
30     H30    -2.8127    3.7799   -5.2359 H        1 ZINC000019364224    0.0500
31     H31    -2.5506    5.1964   -4.1904 H        1 ZINC000019364224    0.0700
32     H32    -1.7733    3.1878   -3.0266 H        1 ZINC000019364224    0.0600
33     H33    -3.2324    3.8033   -2.2140 H        1 ZINC000019364224    0.0600
34     H34    -2.2422    0.9447   -2.1695 H        1 ZINC000019364224    0.0600
35     H35    -3.7013    1.5602   -1.3569 H        1 ZINC000019364224    0.0700
36     H36    -3.9775   -0.8331   -1.7774 H        1 ZINC000019364224    0.1100
37     H37    -5.0886    0.0707   -2.8342 H        1 ZINC000019364224    0.1000
38     H38    -1.5758    0.2132   -3.6174 H        1 ZINC000019364224    0.0600
39     H39    -1.6886   -1.3480   -2.7691 H        1 ZINC000019364224    0.1200
40     H40    -0.2749   -1.5253   -4.8058 H        1 ZINC000019364224    0.1400
41     H41    -1.7360   -2.5327   -4.9413 H        1 ZINC000019364224    0.1400
42     H42     0.4363    0.5212   -6.3584 H        1 ZINC000019364224    0.1100
43     H43     2.8895    0.5132   -6.1467 H        1 ZINC000019364224    0.1400
44     H44     4.1770   -1.4745   -6.8210 H        1 ZINC000019364224    0.1400
45     H45     3.0113   -3.4545   -7.7063 H        1 ZINC000019364224    0.1400
46     H46     0.5577   -3.4482   -7.9137 H        1 ZINC000019364224    0.1300
47     H47    -1.3090    1.2142   -7.6510 H        1 ZINC000019364224    0.1200
48     H48    -1.9517    2.4228   -9.6976 H        1 ZINC000019364224    0.1500
49     H49    -2.5096   -1.2951  -11.7159 H        1 ZINC000019364224    0.1500
50     H50    -1.8606   -2.5018   -9.6702 H        1 ZINC000019364224    0.1400
51     H51    -3.4911   -0.2600   -7.1546 H        1 ZINC000019364224    0.1300
52     H52    -3.5735   -1.8098   -6.2832 H        1 ZINC000019364224    0.1400
53     H53    -4.9095   -0.0808   -5.1214 H        1 ZINC000019364224    0.1200
54     H54    -3.4687    0.9580   -4.9998 H        1 ZINC000019364224    0.0900
@<TRIPOS>BOND
1     1     2     1
2     1     29    1
3     2     3     1
4     2     30    1
5     2     31    1
6     3     4     1
7     3     32    1
8     3     33    1
9     4     5     1
10    5     6     1
11    5     34    1
12    5     35    1
13    6     7     1
14    6     36    1
15    6     37    1
16    7     28    1
17    7     8     1
18    8     9     1
19    8     38    1
20    8     39    1
21    9     10    1
22    9     40    1
23    9     41    1
24    10    11    1
25    10    12    1
26    10    27    1
27    12    13    1
28    12    14    1
29    12    20    1
30    14    19    ar
31    14    15    ar
32    15    16    ar
33    15    42    1
34    16    17    ar
35    16    43    1
36    17    18    ar
37    17    44    1
38    18    19    ar
39    18    45    1
40    19    46    1
41    20    26    ar
42    20    21    ar
43    21    22    ar
44    21    47    1
45    22    23    ar
46    22    48    1
47    23    24    1
48    23    25    ar
49    25    26    ar
50    25    49    1
51    26    50    1
52    27    28    1
53    27    51    1
54    27    52    1
55    28    53    1
56    28    54    1
@<TRIPOS>SUBSTRUCTURE
1   ZINC000019364224 1     RESIDUE    1   A     ZIN   1
