@<TRIPOS>MOLECULE
ZINC000022056030
31   31    0    0    0
SMALL
USER_CHARGES
NO_NAME
@<TRIPOS>ATOM
1 C1        0.3293    -1.5019    -0.3967 C.1    1 <0>      -0.1900
2 C2        0.1330    -0.3447    -0.3708 C.1    1 <0>      -0.1800
3 C3       -0.1132     1.1062    -0.3382 C.3    1 <0>       0.1600
4 N4        1.1686     1.8217    -0.3937 N.3    1 <0>      -0.5400
5 C5        1.8347     1.6091    -1.6856 C.3    1 <0>       0.0200
6 C6        0.9839     3.2543    -0.1261 C.3    1 <0>       0.0900
7 H7        0.3026     3.6770    -0.8646 H      1 <0>       0.0500
8 C8        0.3968     3.4399     1.2745 C.3    1 <0>      -0.1500
9 C9        2.3348     3.9674    -0.2115 C.3    1 <0>      -0.0800
10 C10       2.1296     5.4524    -0.0575 C.ar   1 <0>      -0.0800
11 C11       1.7785     6.2189    -1.1530 C.ar   1 <0>      -0.1200
12 C12       1.5902     7.5810    -1.0117 C.ar   1 <0>      -0.1200
13 C13       1.7526     8.1766     0.2251 C.ar   1 <0>      -0.1200
14 C14       2.1029     7.4100     1.3208 C.ar   1 <0>      -0.1200
15 C15       2.2869     6.0472     1.1804 C.ar   1 <0>      -0.1100
16 H16       0.5049    -2.5368    -0.4199 H      1 <0>       0.2200
17 H17      -0.7251     1.3902    -1.1944 H      1 <0>       0.0600
18 H18      -0.6345     1.3657     0.5831 H      1 <0>       0.1000
19 H19       1.2538     2.0839    -2.4764 H      1 <0>       0.0300
20 H20       2.8330     2.0458    -1.6560 H      1 <0>       0.0800
21 H21       1.9116     0.5399    -1.8832 H      1 <0>       0.0700
22 H22       0.2597     4.5028     1.4731 H      1 <0>       0.0700
23 H23      -0.5656     2.9318     1.3354 H      1 <0>       0.0600
24 H24       1.0781     3.0172     2.0130 H      1 <0>       0.0700
25 H25       2.9871     3.6064     0.5837 H      1 <0>       0.0800
26 H26       2.7934     3.7624    -1.1788 H      1 <0>       0.0800
27 H27       1.6516     5.7535    -2.1193 H      1 <0>       0.1200
28 H28       1.3166     8.1800    -1.8678 H      1 <0>       0.1200
29 H29       1.6062     9.2410     0.3353 H      1 <0>       0.1200
30 H30       2.2301     7.8754     2.2870 H      1 <0>       0.1200
31 H31       2.5606     5.4482     2.0364 H      1 <0>       0.1200
@<TRIPOS>BOND
1    1    2 3
2    1   16 1
3    2    3 1
4    3    4 1
5    3   17 1
6    3   18 1
7    4    5 1
8    4    6 1
9    5   19 1
10    5   20 1
11    5   21 1
12    6    7 1
13    6    8 1
14    6    9 1
15    8   22 1
16    8   23 1
17    8   24 1
18    9   10 1
19    9   25 1
20    9   26 1
21   10   15 ar
22   10   11 ar
23   11   12 ar
24   11   27 1
25   12   13 ar
26   12   28 1
27   13   14 ar
28   13   29 1
29   14   15 ar
30   14   30 1
31   15   31 1
