@<TRIPOS>MOLECULE
ZINC000000004778
34    37    1     0     0
SMALL
USER_CHARGES
@<TRIPOS>ATOM
1      C1     -0.0184    1.5028    0.0103 C.3      1 ZINC000000004778   -0.1200
2      C2      0.0021   -0.0041    0.0020 C.ar     1 ZINC000000004778   -0.0500
3      C3      0.0061   -0.7054   -1.1951 C.ar     1 ZINC000000004778   -0.1600
4      C4      0.0283   -2.0851   -1.1690 C.ar     1 ZINC000000004778    0.1200
5      N5      0.0622   -2.7397   -0.0242 N.ar     1 ZINC000000004778   -0.4800
6      C6      0.0685   -2.1112    1.1430 C.ar     1 ZINC000000004778    0.3700
7      C7      0.0231   -0.7205    1.1949 C.ar     1 ZINC000000004778    0.0800
8      N8     -0.0570   -0.0306    2.4017 N.am     1 ZINC000000004778   -0.6400
9      C9      0.5872   -0.3158    3.5232 C.2      1 ZINC000000004778    0.5800
10     O10     0.4019    0.4197    4.4733 O.2      1 ZINC000000004778   -0.5300
11     C11     1.5042   -1.4429    3.7169 C.ar     1 ZINC000000004778   -0.2000
12     C12     2.6665   -1.2778    4.4787 C.ar     1 ZINC000000004778    0.0000
13     C13     3.4879   -2.3752    4.6725 C.ar     1 ZINC000000004778   -0.1900
14     C14     3.1377   -3.5928    4.1184 C.ar     1 ZINC000000004778    0.1500
15     N15     2.0450   -3.7235    3.3915 N.ar     1 ZINC000000004778   -0.4900
16     C16     1.2371   -2.7005    3.1549 C.ar     1 ZINC000000004778    0.4100
17     N17     0.1540   -2.8634    2.3150 N.pl3    1 ZINC000000004778   -0.5500
18     C18    -0.9044   -3.8192    2.6505 C.3      1 ZINC000000004778    0.1100
19     C19    -0.6618   -4.7542    3.8369 C.3      1 ZINC000000004778   -0.1700
20     C20    -1.6618   -3.6030    3.9622 C.3      1 ZINC000000004778   -0.2000
21     H21     1.0042    1.8801    0.0026 H        1 ZINC000000004778    0.0800
22     H22    -0.5455    1.8639   -0.8728 H        1 ZINC000000004778    0.0800
23     H23    -0.5286    1.8543    0.9071 H        1 ZINC000000004778    0.0700
24     H24    -0.0083   -0.1774   -2.1371 H        1 ZINC000000004778    0.1500
25     H25     0.0175   -2.6360   -2.0979 H        1 ZINC000000004778    0.1700
26     H26    -0.6461    0.7397    2.4233 H        1 ZINC000000004778    0.4100
27     H27     2.9168   -0.3175    4.9048 H        1 ZINC000000004778    0.1500
28     H28     4.3948   -2.2811    5.2513 H        1 ZINC000000004778    0.1500
29     H29     3.7706   -4.4522    4.2835 H        1 ZINC000000004778    0.1700
30     H30    -1.4662   -4.2147    1.8042 H        1 ZINC000000004778    0.1300
31     H31    -1.0639   -5.7653    3.7714 H        1 ZINC000000004778    0.1100
32     H32     0.2853   -4.6583    4.3679 H        1 ZINC000000004778    0.1000
33     H33    -1.3726   -2.7497    4.5755 H        1 ZINC000000004778    0.0900
34     H34    -2.7217   -3.8567    3.9790 H        1 ZINC000000004778    0.1000
@<TRIPOS>BOND
1     1     2     1
2     1     21    1
3     1     22    1
4     1     23    1
5     2     7     ar
6     2     3     ar
7     3     4     ar
8     3     24    1
9     4     5     ar
10    4     25    1
11    5     6     ar
12    6     17    1
13    6     7     ar
14    7     8     1
15    8     9     am
16    8     26    1
17    9     10    2
18    9     11    1
19    11    16    ar
20    11    12    ar
21    12    13    ar
22    12    27    1
23    13    14    ar
24    13    28    1
25    14    15    ar
26    14    29    1
27    15    16    ar
28    16    17    1
29    17    18    1
30    18    20    1
31    18    19    1
32    18    30    1
33    19    20    1
34    19    31    1
35    19    32    1
36    20    33    1
37    20    34    1
@<TRIPOS>SUBSTRUCTURE
1   ZINC000000004778 1     RESIDUE    1   A     ZIN   1
