@<TRIPOS>MOLECULE
ZINC000000121480
28    29    1     0     0
SMALL
USER_CHARGES
@<TRIPOS>ATOM
1      O1     -0.0745    0.0226   -0.2929 O.2      1 ZINC000000121480   -0.5500
2      C2     -0.0888    1.2302   -0.1516 C.2      1 ZINC000000121480    0.7000
3      N3      1.0658    1.9251   -0.1745 N.am     1 ZINC000000121480   -0.6800
4      C4      2.2882    1.2486   -0.2634 C.ar     1 ZINC000000121480    0.1600
5      C5      3.4014    1.7324    0.4111 C.ar     1 ZINC000000121480   -0.1300
6      C6      4.6061    1.0629    0.3221 C.ar     1 ZINC000000121480   -0.0900
7      C7      4.7045   -0.0889   -0.4387 C.ar     1 ZINC000000121480   -0.0500
8      Cl8     6.2203   -0.9277   -0.5489 Cl       1 ZINC000000121480   -0.0700
9      C9      3.5965   -0.5733   -1.1114 C.ar     1 ZINC000000121480   -0.0900
10     C10     2.3881    0.0895   -1.0215 C.ar     1 ZINC000000121480   -0.1100
11     N11    -1.2597    1.8745    0.0223 N.am     1 ZINC000000121480   -0.6800
12     C12    -2.4480    1.1452    0.1481 C.ar     1 ZINC000000121480    0.1800
13     C13    -3.6364    1.6608   -0.3516 C.ar     1 ZINC000000121480   -0.1300
14     C14    -4.8079    0.9394   -0.2269 C.ar     1 ZINC000000121480   -0.0800
15     C15    -4.7984   -0.2959    0.3956 C.ar     1 ZINC000000121480   -0.0500
16     Cl16   -6.2724   -1.1997    0.5505 Cl       1 ZINC000000121480   -0.0500
17     C17    -3.6144   -0.8130    0.8951 C.ar     1 ZINC000000121480   -0.0100
18     Cl18   -3.6058   -2.3638    1.6753 Cl       1 ZINC000000121480   -0.0400
19     C19    -2.4389   -0.0975    0.7677 C.ar     1 ZINC000000121480   -0.1000
20     H20     1.0498    2.8939   -0.1293 H        1 ZINC000000121480    0.4100
21     H21     3.3254    2.6316    1.0044 H        1 ZINC000000121480    0.1400
22     H22     5.4722    1.4387    0.8465 H        1 ZINC000000121480    0.1400
23     H23     3.6758   -1.4724   -1.7045 H        1 ZINC000000121480    0.1400
24     H24     1.5236   -0.2891   -1.5464 H        1 ZINC000000121480    0.1500
25     H25    -1.2791    2.8436    0.0603 H        1 ZINC000000121480    0.4100
26     H26    -3.6449    2.6254   -0.8371 H        1 ZINC000000121480    0.1400
27     H27    -5.7323    1.3405   -0.6156 H        1 ZINC000000121480    0.1500
28     H28    -1.5157   -0.5007    1.1568 H        1 ZINC000000121480    0.1600
@<TRIPOS>BOND
1     1     2     2
2     2     3     am
3     2     11    am
4     3     4     1
5     3     20    1
6     4     10    ar
7     4     5     ar
8     5     6     ar
9     5     21    1
10    6     7     ar
11    6     22    1
12    7     8     1
13    7     9     ar
14    9     10    ar
15    9     23    1
16    10    24    1
17    11    12    1
18    11    25    1
19    12    19    ar
20    12    13    ar
21    13    14    ar
22    13    26    1
23    14    15    ar
24    14    27    1
25    15    16    1
26    15    17    ar
27    17    18    1
28    17    19    ar
29    19    28    1
@<TRIPOS>SUBSTRUCTURE
1   ZINC000000121480 1     RESIDUE    1   A     ZIN   1
