@<TRIPOS>MOLECULE
ZINC000003830339
47    48    1     0     0
SMALL
USER_CHARGES
@<TRIPOS>ATOM
1      C1     -0.0187    1.5258    0.0104 C.3      1 ZINC000003830339   -0.1800
2      C2      0.0021   -0.0041    0.0020 C.3      1 ZINC000003830339    0.0600
3      C3      0.7421   -0.5109    1.2415 C.3      1 ZINC000003830339   -0.1800
4      C4     -1.4333   -0.5336    0.0129 C.3      1 ZINC000003830339   -0.1800
5      N5      0.6897   -0.4778   -1.2066 N.4      1 ZINC000003830339   -0.5000
6      H6      0.7033   -1.4867   -1.2121 H        1 ZINC000003830339    0.4300
7      H7      0.2017   -0.1436   -2.0240 H        1 ZINC000003830339    0.4300
8      C8      2.0678    0.0307   -1.2170 C.3      1 ZINC000003830339   -0.0500
9      C9      2.7840   -0.4628   -2.4758 C.3      1 ZINC000003830339    0.0900
10     H10     2.2568   -0.1017   -3.3589 H        1 ZINC000003830339    0.1400
11     O11     2.8033   -1.8916   -2.4837 O.3      1 ZINC000003830339   -0.5400
12     C12     4.2193    0.0668   -2.4867 C.3      1 ZINC000003830339    0.0300
13     O13     4.8516   -0.2959   -3.7158 O.3      1 ZINC000003830339   -0.3000
14     C14     6.1402    0.1007   -3.8874 C.ar     1 ZINC000003830339    0.1000
15     C15     6.7810    0.8190   -2.8885 C.ar     1 ZINC000003830339   -0.1800
16     C16     8.0922    1.2288   -3.0513 C.ar     1 ZINC000003830339   -0.0900
17     C17     8.7704    0.9263   -4.2135 C.ar     1 ZINC000003830339   -0.0900
18     C18     8.1312    0.2034   -5.2252 C.ar     1 ZINC000003830339   -0.1300
19     C19     6.8121   -0.2194   -5.0592 C.ar     1 ZINC000003830339   -0.0500
20     C20     6.0975   -1.0097   -6.1208 C.3      1 ZINC000003830339   -0.0800
21     C21     6.7288   -0.7909   -7.4930 C.3      1 ZINC000003830339   -0.1200
22     C22     8.2282   -1.1085   -7.4202 C.3      1 ZINC000003830339   -0.1700
23     C23     8.8589   -0.1132   -6.4698 C.2      1 ZINC000003830339    0.4000
24     O24     9.9217    0.4118   -6.7251 O.2      1 ZINC000003830339   -0.4400
25     H25     1.0039    1.9031    0.0027 H        1 ZINC000003830339    0.0800
26     H26    -0.5459    1.8868   -0.8726 H        1 ZINC000003830339    0.0800
27     H27    -0.5289    1.8773    0.9072 H        1 ZINC000003830339    0.1100
28     H28     0.2319   -0.1594    2.1383 H        1 ZINC000003830339    0.1100
29     H29     0.7568   -1.6008    1.2356 H        1 ZINC000003830339    0.0800
30     H30     1.7647   -0.1336    1.2338 H        1 ZINC000003830339    0.0800
31     H31    -1.9605   -0.1726   -0.8702 H        1 ZINC000003830339    0.0800
32     H32    -1.4185   -1.6235    0.0069 H        1 ZINC000003830339    0.0800
33     H33    -1.9435   -0.1821    0.9097 H        1 ZINC000003830339    0.1100
34     H34     2.0530    1.1205   -1.2110 H        1 ZINC000003830339    0.1500
35     H35     2.5950   -0.3304   -0.3340 H        1 ZINC000003830339    0.1400
36     H36     3.2576   -2.2830   -1.7250 H        1 ZINC000003830339    0.3900
37     H37     4.2068    1.1526   -2.3912 H        1 ZINC000003830339    0.0800
38     H38     4.7722   -0.3649   -1.6524 H        1 ZINC000003830339    0.0800
39     H39     6.2527    1.0602   -1.9779 H        1 ZINC000003830339    0.1300
40     H40     8.5848    1.7861   -2.2683 H        1 ZINC000003830339    0.1400
41     H41     9.7935    1.2476   -4.3420 H        1 ZINC000003830339    0.1400
42     H42     6.1461   -2.0695   -5.8703 H        1 ZINC000003830339    0.0900
43     H43     5.0532   -0.6995   -6.1546 H        1 ZINC000003830339    0.0900
44     H44     6.2530   -1.4477   -8.2211 H        1 ZINC000003830339    0.0900
45     H45     6.5914    0.2474   -7.7950 H        1 ZINC000003830339    0.0700
46     H46     8.3747   -2.1203   -7.0421 H        1 ZINC000003830339    0.1100
47     H47     8.6757   -1.0132   -8.4095 H        1 ZINC000003830339    0.1000
@<TRIPOS>BOND
1     1     2     1
2     1     25    1
3     1     26    1
4     1     27    1
5     2     3     1
6     2     4     1
7     2     5     1
8     3     28    1
9     3     29    1
10    3     30    1
11    4     31    1
12    4     32    1
13    4     33    1
14    5     6     1
15    5     7     1
16    5     8     1
17    8     9     1
18    8     34    1
19    8     35    1
20    9     10    1
21    9     11    1
22    9     12    1
23    11    36    1
24    12    13    1
25    12    37    1
26    12    38    1
27    13    14    1
28    14    19    ar
29    14    15    ar
30    15    16    ar
31    15    39    1
32    16    17    ar
33    16    40    1
34    17    18    ar
35    17    41    1
36    18    23    1
37    18    19    ar
38    19    20    1
39    20    21    1
40    20    42    1
41    20    43    1
42    21    22    1
43    21    44    1
44    21    45    1
45    22    23    1
46    22    46    1
47    22    47    1
48    23    24    2
@<TRIPOS>SUBSTRUCTURE
1   ZINC000003830339 1     RESIDUE    1   A     ZIN   1
