@<TRIPOS>MOLECULE
ZINC000000538658
57    60    1     0     0
SMALL
USER_CHARGES
@<TRIPOS>ATOM
1      C1      2.7083    0.9222    0.5239 C.3      1 ZINC000000538658   -0.1300
2      C2      1.8710   -0.3138    0.3185 C.ar     1 ZINC000000538658   -0.0200
3      C3      1.8258   -0.9202   -0.9195 C.ar     1 ZINC000000538658   -0.1300
4      C4      1.0570   -2.0550   -1.1098 C.ar     1 ZINC000000538658   -0.0800
5      C5      0.3291   -2.5888   -0.0615 C.ar     1 ZINC000000538658   -0.1300
6      C6      0.3658   -1.9924    1.1821 C.ar     1 ZINC000000538658   -0.0800
7      C7      1.1438   -0.8509    1.3824 C.ar     1 ZINC000000538658   -0.1500
8      C8      1.1879   -0.2067    2.7120 C.2      1 ZINC000000538658    0.5600
9      O9      1.8474    0.8010    2.8775 O.2      1 ZINC000000538658   -0.5000
10     N10     0.4970   -0.7364    3.7408 N.am     1 ZINC000000538658   -0.6700
11     C11     0.4511   -0.0720    4.9649 C.ar     1 ZINC000000538658    0.1800
12     C12     0.4361    1.3189    4.9996 C.ar     1 ZINC000000538658   -0.1300
13     C13     0.3904    1.9784    6.2072 C.ar     1 ZINC000000538658   -0.0500
14     C14     0.3590    1.2493    7.3990 C.ar     1 ZINC000000538658   -0.1500
15     C15     0.3094    1.9528    8.6952 C.2      1 ZINC000000538658    0.5700
16     O16    -0.5127    1.6303    9.5310 O.2      1 ZINC000000538658   -0.5100
17     N17     1.1754    2.9530    8.9526 N.am     1 ZINC000000538658   -0.5700
18     C18     1.2109    3.6047   10.2714 C.3      1 ZINC000000538658    0.1100
19     C19     0.3816    4.8670   10.2591 C.3      1 ZINC000000538658   -0.1400
20     C20     0.9179    5.9399    9.3213 C.3      1 ZINC000000538658   -0.1100
21     C21     0.7469    5.5309    7.8614 C.3      1 ZINC000000538658    0.1500
22     H22    -0.1756    4.9613    7.7484 H        1 ZINC000000538658    0.0700
23     O23     0.6898    6.6998    7.0415 O.3      1 ZINC000000538658   -0.5600
24     C24     1.9270    4.6732    7.4428 C.ar     1 ZINC000000538658   -0.1200
25     C25     2.8456    5.1577    6.5356 C.ar     1 ZINC000000538658   -0.0900
26     C26     3.9059    4.3584    6.1399 C.ar     1 ZINC000000538658   -0.0300
27     Cl27    5.0689    4.9629    5.0015 Cl       1 ZINC000000538658   -0.0600
28     C28     4.0392    3.0792    6.6500 C.ar     1 ZINC000000538658   -0.0900
29     C29     3.1234    2.5966    7.5656 C.ar     1 ZINC000000538658   -0.1000
30     C30     2.0727    3.3996    7.9754 C.ar     1 ZINC000000538658    0.1500
31     C31     0.3742   -0.1480    7.3606 C.ar     1 ZINC000000538658   -0.0100
32     C32     0.3399   -0.9383    8.6433 C.3      1 ZINC000000538658   -0.1200
33     C33     0.4146   -0.8012    6.1498 C.ar     1 ZINC000000538658   -0.1500
34     H34     3.6732    0.6414    0.9460 H        1 ZINC000000538658    0.0800
35     H35     2.8616    1.4204   -0.4334 H        1 ZINC000000538658    0.0600
36     H36     2.1957    1.5989    1.2076 H        1 ZINC000000538658    0.1000
37     H37     2.3913   -0.5083   -1.7422 H        1 ZINC000000538658    0.1300
38     H38     1.0247   -2.5258   -2.0813 H        1 ZINC000000538658    0.1300
39     H39    -0.2694   -3.4743   -0.2169 H        1 ZINC000000538658    0.1300
40     H40    -0.2031   -2.4099    1.9997 H        1 ZINC000000538658    0.1300
41     H41     0.0316   -1.5801    3.6292 H        1 ZINC000000538658    0.4100
42     H42     0.4608    1.8817    4.0782 H        1 ZINC000000538658    0.1400
43     H43     0.3791    3.0580    6.2335 H        1 ZINC000000538658    0.1300
44     H44     0.8149    2.9207   11.0221 H        1 ZINC000000538658    0.1000
45     H45     2.2419    3.8533   10.5229 H        1 ZINC000000538658    0.0800
46     H46    -0.6341    4.6140    9.9549 H        1 ZINC000000538658    0.0700
47     H47     0.3488    5.2725   11.2703 H        1 ZINC000000538658    0.0900
48     H48     0.3784    6.8706    9.4972 H        1 ZINC000000538658    0.0900
49     H49     1.9767    6.0974    9.5266 H        1 ZINC000000538658    0.0700
50     H50     0.5816    6.5140    6.0987 H        1 ZINC000000538658    0.3800
51     H51     2.7393    6.1553    6.1359 H        1 ZINC000000538658    0.1500
52     H52     4.8615    2.4557    6.3314 H        1 ZINC000000538658    0.1400
53     H53     3.2272    1.5972    7.9618 H        1 ZINC000000538658    0.1300
54     H54    -0.6914   -1.1970    8.8832 H        1 ZINC000000538658    0.0800
55     H55     0.9249   -1.8503    8.5239 H        1 ZINC000000538658    0.0700
56     H56     0.7615   -0.3393    9.4505 H        1 ZINC000000538658    0.0700
57     H57     0.4260   -1.8807    6.1193 H        1 ZINC000000538658    0.1300
@<TRIPOS>BOND
1     1     2     1
2     1     34    1
3     1     35    1
4     1     36    1
5     2     7     ar
6     2     3     ar
7     3     4     ar
8     3     37    1
9     4     5     ar
10    4     38    1
11    5     6     ar
12    5     39    1
13    6     7     ar
14    6     40    1
15    7     8     1
16    8     9     2
17    8     10    am
18    10    11    1
19    10    41    1
20    11    33    ar
21    11    12    ar
22    12    13    ar
23    12    42    1
24    13    14    ar
25    13    43    1
26    14    15    1
27    14    31    ar
28    15    16    2
29    15    17    am
30    17    30    1
31    17    18    1
32    18    19    1
33    18    44    1
34    18    45    1
35    19    20    1
36    19    46    1
37    19    47    1
38    20    21    1
39    20    48    1
40    20    49    1
41    21    22    1
42    21    23    1
43    21    24    1
44    23    50    1
45    24    30    ar
46    24    25    ar
47    25    26    ar
48    25    51    1
49    26    27    1
50    26    28    ar
51    28    29    ar
52    28    52    1
53    29    30    ar
54    29    53    1
55    31    32    1
56    31    33    ar
57    32    54    1
58    32    55    1
59    32    56    1
60    33    57    1
@<TRIPOS>SUBSTRUCTURE
1   ZINC000000538658 1     RESIDUE    1   A     ZIN   1
