@<TRIPOS>MOLECULE
ZINC000018089317
24    25    1     0     0
SMALL
USER_CHARGES
@<TRIPOS>ATOM
1      O1      0.0021   -0.0041    0.0020 O.2      1 ZINC000018089317   -0.1300
2      N2     -0.0144    1.2138    0.0087 N.pl3    1 ZINC000018089317    0.1200
3      O3      1.0320    1.8371    0.0021 O.2      1 ZINC000018089317   -0.0600
4      O4     -1.2502    1.9051    0.0183 O.3      1 ZINC000018089317   -0.1900
5      C5     -2.3948    1.0495    0.0191 C.3      1 ZINC000018089317    0.0300
6      H6     -2.1894    0.1435    0.5893 H        1 ZINC000018089317    0.1400
7      C7     -2.7977    0.6945   -1.4215 C.3      1 ZINC000018089317    0.0300
8      O8     -4.1042    1.2236   -1.6569 O.3      1 ZINC000018089317   -0.3500
9      C9     -4.7553    1.4659   -0.4012 C.3      1 ZINC000018089317    0.0700
10     H10    -5.3777    0.6300   -0.0818 H        1 ZINC000018089317    0.1300
11     C11    -5.5446    2.7916   -0.5122 C.3      1 ZINC000018089317    0.0200
12     H12    -5.5448    3.1503   -1.5415 H        1 ZINC000018089317    0.1500
13     O13    -6.8836    2.6169   -0.0446 O.3      1 ZINC000018089317   -0.2100
14     N14    -7.8101    3.5359   -0.5942 N.pl3    1 ZINC000018089317    0.1200
15     O15    -7.4339    4.3771   -1.3907 O.2      1 ZINC000018089317   -0.1200
16     O16    -8.9832    3.4852   -0.2705 O.2      1 ZINC000018089317   -0.0600
17     C17    -4.7738    3.7701    0.4008 C.3      1 ZINC000018089317    0.0300
18     O18    -3.4362    3.2291    0.4769 O.3      1 ZINC000018089317   -0.3300
19     C19    -3.6126    1.7857    0.6049 C.3      1 ZINC000018089317    0.0600
20     H20    -3.8412    1.4829    1.6267 H        1 ZINC000018089317    0.1300
21     H21    -2.0892    1.1366   -2.1220 H        1 ZINC000018089317    0.1000
22     H22    -2.8108   -0.3885   -1.5444 H        1 ZINC000018089317    0.1000
23     H23    -4.7555    4.7665   -0.0409 H        1 ZINC000018089317    0.1300
24     H24    -5.2272    3.8017    1.3915 H        1 ZINC000018089317    0.0900
@<TRIPOS>BOND
1     1     2     2
2     2     3     2
3     2     4     1
4     4     5     1
5     5     6     1
6     5     19    1
7     5     7     1
8     7     8     1
9     7     21    1
10    7     22    1
11    8     9     1
12    9     10    1
13    9     19    1
14    9     11    1
15    11    12    1
16    11    13    1
17    11    17    1
18    13    14    1
19    14    15    2
20    14    16    2
21    17    18    1
22    17    23    1
23    17    24    1
24    18    19    1
25    19    20    1
@<TRIPOS>SUBSTRUCTURE
1   ZINC000018089317 1     RESIDUE    1   A     ZIN   1
