@<TRIPOS>MOLECULE
ZINC000000000922
17   17    0    0    0
SMALL
USER_CHARGES
NO_NAME
@<TRIPOS>ATOM
1 N1       -0.0168     1.3851     0.0097 N.pl3  1 <0>      -0.8800
2 C2        0.0021    -0.0041     0.0020 C.ar   1 <0>       0.2200
3 C3       -1.1976    -0.7148     0.0039 C.ar   1 <0>      -0.2200
4 C4       -1.1911    -2.0788    -0.0035 C.ar   1 <0>      -0.0300
5 C5        0.0241    -2.7753    -0.0127 C.ar   1 <0>      -0.2200
6 C6        0.0321    -4.2431    -0.0207 C.2    1 <0>       0.5200
7 O7       -1.0245    -4.8608    -0.0194 O.co2  1 <0>      -0.7000
8 O8        1.0954    -4.8492    -0.0287 O.co2  1 <0>      -0.6800
9 C9        1.2363    -2.0627    -0.0146 C.ar   1 <0>       0.1800
10 O10       2.4181    -2.7278    -0.0235 O.3    1 <0>      -0.4800
11 C11       1.2166    -0.6797    -0.0132 C.ar   1 <0>      -0.2500
12 H12       0.8166     1.8815     0.0044 H      1 <0>       0.3900
13 H13      -0.8633     1.8587     0.0162 H      1 <0>       0.3900
14 H14      -2.1371    -0.1823     0.0117 H      1 <0>       0.1100
15 H15      -2.1243    -2.6225    -0.0020 H      1 <0>       0.1300
16 H16       2.7568    -2.9162    -0.9094 H      1 <0>       0.3800
17 H17       2.1437    -0.1257    -0.0150 H      1 <0>       0.1200
@<TRIPOS>BOND
1    1    2 1
2    1   12 1
3    1   13 1
4    2   11 ar
5    2    3 ar
6    3    4 ar
7    3   14 1
8    4    5 ar
9    4   15 1
10    5    6 1
11    5    9 ar
12    6    7 ar
13    6    8 ar
14    9   10 1
15    9   11 ar
16   10   16 1
17   11   17 1
