@<TRIPOS>MOLECULE
ZINC000001187543
13   13    0    0    0
SMALL
USER_CHARGES
NO_NAME
@<TRIPOS>ATOM
1 C1       -0.0178     1.4608     0.0101 C.3    1 <0>       0.0800
2 N2        0.0021    -0.0041     0.0020 N.am   1 <0>      -0.4600
3 C3        0.0084    -0.8125    -1.1243 C.2    1 <0>      -0.0100
4 C4        0.0273    -2.0780    -0.7191 C.2    1 <0>      -0.0100
5 N5        0.0330    -2.0818     0.6673 N.am   1 <0>      -0.5700
6 C6        0.0232    -0.8016     1.0880 C.2    1 <0>       0.4600
7 S7        0.0252    -0.2796     2.7185 S.2    1 <0>      -0.6300
8 H8        1.0048     1.8381     0.0023 H      1 <0>       0.0900
9 H9       -0.5450     1.8219    -0.8730 H      1 <0>       0.0900
10 H10      -0.5280     1.8123     0.9069 H      1 <0>       0.1100
11 H11      -0.0007    -0.4737    -2.1498 H      1 <0>       0.2000
12 H12       0.0362    -2.9494    -1.3570 H      1 <0>       0.2000
13 H13       0.0455    -2.8683     1.2350 H      1 <0>       0.4500
@<TRIPOS>BOND
1    1    2 1
2    1    8 1
3    1    9 1
4    1   10 1
5    2    6 am
6    2    3 1
7    3    4 2
8    3   11 1
9    4    5 1
10    4   12 1
11    5    6 am
12    5   13 1
13    6    7 2
