@<TRIPOS>MOLECULE
ZINC000003807172
71    73    1     0     0
SMALL
USER_CHARGES
@<TRIPOS>ATOM
1      C1      1.5604   -2.3785    0.1066 C.3      1 ZINC000003807172   -0.1500
2      C2      0.4994   -2.9778    1.0318 C.3      1 ZINC000003807172   -0.0900
3      H3      0.0868   -3.8779    0.5761 H        1 ZINC000003807172    0.0700
4      C4     -0.6205   -1.9581    1.2513 C.3      1 ZINC000003807172   -0.1300
5      C5     -0.0314   -0.6818    1.8601 C.3      1 ZINC000003807172    0.1000
6      N6      0.7085   -1.0371    3.0788 N.am     1 ZINC000003807172   -0.5900
7      C7      0.4396   -0.4243    4.2486 C.2      1 ZINC000003807172    0.4800
8      O8      1.0188   -0.7643    5.2585 O.2      1 ZINC000003807172   -0.4400
9      C9     -0.5808    0.6834    4.3019 C.3      1 ZINC000003807172    0.1500
10     H10    -1.4436    0.4122    3.6936 H        1 ZINC000003807172    0.1000
11     C11     0.0387    1.9739    3.7616 C.3      1 ZINC000003807172   -0.1200
12     C12    -1.0345    3.0617    3.6850 C.3      1 ZINC000003807172   -0.1400
13     C13    -0.4151    4.3521    3.1447 C.3      1 ZINC000003807172    0.0900
14     N14    -1.4427    5.3937    3.0714 N.pl3    1 ZINC000003807172   -0.6900
15     C15    -1.1200    6.6419    2.6144 C.cat    1 ZINC000003807172    0.7400
16     N16     0.1286    6.9104    2.2361 N.pl3    1 ZINC000003807172   -0.7900
17     N17    -2.0542    7.5889    2.5478 N.pl3    1 ZINC000003807172   -0.8000
18     H18    -2.9635    7.3934    2.8233 H        1 ZINC000003807172    0.4400
19     H19    -1.8254    8.4741    2.2237 H        1 ZINC000003807172    0.4400
20     N20    -1.0062    0.8893    5.6886 N.am     1 ZINC000003807172   -1.0900
21     S21    -2.3297    0.0862    6.2765 S.o2     1 ZINC000003807172    2.6900
22     O22    -2.1758   -1.2740    5.8953 O.2      1 ZINC000003807172   -0.9200
23     O23    -2.4846    0.5023    7.6264 O.2      1 ZINC000003807172   -0.9600
24     C24    -3.7365    0.6911    5.4049 C.ar     1 ZINC000003807172   -0.7300
25     C25    -4.4111   -0.1374    4.5346 C.ar     1 ZINC000003807172    0.0100
26     C26    -5.5166    0.3335    3.8497 C.ar     1 ZINC000003807172   -0.1700
27     C27    -5.9434    1.6322    4.0422 C.ar     1 ZINC000003807172   -0.0400
28     C28    -5.2705    2.4712    4.9167 C.ar     1 ZINC000003807172   -0.1600
29     C29    -4.1641    2.0052    5.6046 C.ar     1 ZINC000003807172    0.2300
30     N30    -3.4296    2.7978    6.4853 N.3      1 ZINC000003807172   -0.6500
31     C31    -4.1749    3.9610    6.9706 C.3      1 ZINC000003807172    0.0600
32     C32    -4.7126    4.7386    5.7629 C.3      1 ZINC000003807172   -0.0900
33     H33    -3.9022    4.9365    5.0613 H        1 ZINC000003807172    0.0700
34     C34    -5.3266    6.0599    6.2299 C.3      1 ZINC000003807172   -0.1500
35     C35    -5.7873    3.8769    5.0924 C.3      1 ZINC000003807172   -0.0700
36     C36     1.7469   -2.0734    2.9979 C.3      1 ZINC000003807172    0.0800
37     H37     2.5687   -1.7195    2.3755 H        1 ZINC000003807172    0.0600
38     C38     2.2584   -2.3850    4.3808 C.2      1 ZINC000003807172    0.5200
39     O39     1.5647   -3.0166    5.1594 O.co2    1 ZINC000003807172   -0.6700
40     O40     3.3660   -2.0055    4.7209 O.co2    1 ZINC000003807172   -0.7100
41     C41     1.1378   -3.3338    2.3764 C.3      1 ZINC000003807172   -0.1100
42     H42     2.3579   -3.1048   -0.0502 H        1 ZINC000003807172    0.0500
43     H43     1.1061   -2.1253   -0.8513 H        1 ZINC000003807172    0.0500
44     H44     1.9732   -1.4784    0.5622 H        1 ZINC000003807172    0.0600
45     H45    -1.0901   -1.7224    0.2963 H        1 ZINC000003807172    0.0700
46     H46    -1.3644   -2.3752    1.9300 H        1 ZINC000003807172    0.0700
47     H47     0.6454   -0.2144    1.1449 H        1 ZINC000003807172    0.0600
48     H48    -0.8365    0.0093    2.1099 H        1 ZINC000003807172    0.0700
49     H49     0.8388    2.2990    4.4266 H        1 ZINC000003807172    0.0900
50     H50     0.4444    1.7931    2.7662 H        1 ZINC000003807172    0.0900
51     H51    -1.8346    2.7365    3.0200 H        1 ZINC000003807172    0.0800
52     H52    -1.4403    3.2424    4.6804 H        1 ZINC000003807172    0.1000
53     H53     0.3850    4.6773    3.8097 H        1 ZINC000003807172    0.1000
54     H54    -0.0093    4.1714    2.1493 H        1 ZINC000003807172    0.0900
55     H55    -2.3520    5.1982    3.3469 H        1 ZINC000003807172    0.4300
56     H56     0.8090    6.2208    2.2846 H        1 ZINC000003807172    0.4400
57     H57     0.3575    7.7956    1.9120 H        1 ZINC000003807172    0.4400
58     H58    -0.5126    1.4959    6.2624 H        1 ZINC000003807172    0.4200
59     H59    -4.0766   -1.1537    4.3872 H        1 ZINC000003807172    0.1500
60     H60    -6.0449   -0.3136    3.1651 H        1 ZINC000003807172    0.1300
61     H61    -6.8077    1.9972    3.5073 H        1 ZINC000003807172    0.1300
62     H62    -3.0740    2.2497    7.2542 H        1 ZINC000003807172    0.3900
63     H63    -5.0068    3.6292    7.5918 H        1 ZINC000003807172    0.0600
64     H64    -3.5133    4.6021    7.5532 H        1 ZINC000003807172    0.0900
65     H65    -4.5657    6.6564    6.7333 H        1 ZINC000003807172    0.0600
66     H66    -5.7071    6.6084    5.3683 H        1 ZINC000003807172    0.0600
67     H67    -6.1446    5.8562    6.9210 H        1 ZINC000003807172    0.0600
68     H68    -6.0292    4.2942    4.1149 H        1 ZINC000003807172    0.0800
69     H69    -6.6831    3.8660    5.7134 H        1 ZINC000003807172    0.0800
70     H70     0.3773   -3.7379    3.0446 H        1 ZINC000003807172    0.0800
71     H71     1.9195   -4.0776    2.2221 H        1 ZINC000003807172    0.0600
@<TRIPOS>BOND
1     1     2     1
2     1     42    1
3     1     43    1
4     1     44    1
5     2     3     1
6     2     41    1
7     2     4     1
8     4     5     1
9     4     45    1
10    4     46    1
11    5     6     1
12    5     47    1
13    5     48    1
14    6     7     am
15    6     36    1
16    7     8     2
17    7     9     1
18    9     10    1
19    9     11    1
20    9     20    1
21    11    12    1
22    11    49    1
23    11    50    1
24    12    13    1
25    12    51    1
26    12    52    1
27    13    14    1
28    13    53    1
29    13    54    1
30    14    15    ar
31    14    55    1
32    15    16    ar
33    15    17    ar
34    16    56    1
35    16    57    1
36    17    18    1
37    17    19    1
38    20    21    am
39    20    58    1
40    21    22    2
41    21    23    2
42    21    24    1
43    24    29    ar
44    24    25    ar
45    25    26    ar
46    25    59    1
47    26    27    ar
48    26    60    1
49    27    28    ar
50    27    61    1
51    28    35    1
52    28    29    ar
53    29    30    1
54    30    31    1
55    30    62    1
56    31    32    1
57    31    63    1
58    31    64    1
59    32    33    1
60    32    34    1
61    32    35    1
62    34    65    1
63    34    66    1
64    34    67    1
65    35    68    1
66    35    69    1
67    36    37    1
68    36    38    1
69    36    41    1
70    38    39    ar
71    38    40    ar
72    41    70    1
73    41    71    1
@<TRIPOS>SUBSTRUCTURE
1   ZINC000003807172 1     RESIDUE    1   A     ZIN   1
