@<TRIPOS>MOLECULE
ZINC000040899447
41    43    1     0     0
SMALL
USER_CHARGES
@<TRIPOS>ATOM
1      C1      0.0062    1.8126    0.0286 C.3      1 ZINC000040899447   -0.6500
2      S2      0.0367   -0.0011    0.0166 S.o2     1 ZINC000040899447    2.5000
3      O3      0.8859   -0.4923    1.0447 O.2      1 ZINC000040899447   -0.9300
4      O4     -1.2738   -0.5208   -0.1618 O.2      1 ZINC000040899447   -0.9300
5      C5      0.8760   -0.4169   -1.4758 C.ar     1 ZINC000040899447   -0.6300
6      C6      0.1567   -0.5876   -2.6456 C.ar     1 ZINC000040899447   -0.0300
7      C7      0.8066   -0.9127   -3.8181 C.ar     1 ZINC000040899447   -0.0900
8      C8      2.1937   -1.0697   -3.8236 C.ar     1 ZINC000040899447   -0.0800
9      C9      2.8963   -1.4174   -5.0758 C.2      1 ZINC000040899447    0.5500
10     O10     4.1044   -1.5535   -5.0773 O.2      1 ZINC000040899447   -0.4800
11     N11     2.1981   -1.5837   -6.2165 N.am     1 ZINC000040899447   -0.6700
12     C12     2.8707   -1.8211   -7.4202 C.ar     1 ZINC000040899447    0.1500
13     C13     4.0334   -2.5818   -7.4279 C.ar     1 ZINC000040899447   -0.1000
14     C14     4.7010   -2.8188   -8.6145 C.ar     1 ZINC000040899447   -0.0900
15     C15     4.2158   -2.3010   -9.8000 C.ar     1 ZINC000040899447   -0.0200
16     Cl16    5.0579   -2.6022  -11.2879 Cl       1 ZINC000040899447   -0.0500
17     C17     3.0487   -1.5365   -9.8012 C.ar     1 ZINC000040899447   -0.0200
18     C18     2.5257   -0.9796  -11.0726 C.ar     1 ZINC000040899447    0.1600
19     C19     2.1881    0.3698  -11.1485 C.ar     1 ZINC000040899447   -0.1500
20     C20     1.7018    0.8754  -12.3420 C.ar     1 ZINC000040899447   -0.0700
21     C21     1.5690    0.0136  -13.4212 C.ar     1 ZINC000040899447   -0.1700
22     C22     1.9233   -1.3152  -13.2756 C.ar     1 ZINC000040899447    0.1000
23     N23     2.3885   -1.7695  -12.1299 N.ar     1 ZINC000040899447   -0.4600
24     C24     2.3737   -1.3019   -8.6062 C.ar     1 ZINC000040899447   -0.1100
25     C25     2.9145   -0.8961   -2.6390 C.ar     1 ZINC000040899447   -0.0100
26     Cl26    4.6398   -1.0888   -2.6337 Cl       1 ZINC000040899447   -0.0100
27     C27     2.2511   -0.5655   -1.4737 C.ar     1 ZINC000040899447   -0.0200
28     H28     1.0275    2.1932    0.0164 H        1 ZINC000040899447    0.1400
29     H29    -0.5264    2.1728   -0.8516 H        1 ZINC000040899447    0.1300
30     H30    -0.5010    2.1615    0.9281 H        1 ZINC000040899447    0.1400
31     H31    -0.9164   -0.4662   -2.6405 H        1 ZINC000040899447    0.1600
32     H32     0.2433   -1.0458   -4.7300 H        1 ZINC000040899447    0.1500
33     H33     1.2292   -1.5388   -6.2030 H        1 ZINC000040899447    0.4100
34     H34     4.4167   -2.9887   -6.5039 H        1 ZINC000040899447    0.1500
35     H35     5.6047   -3.4101   -8.6151 H        1 ZINC000040899447    0.1400
36     H36     2.3039    1.0125  -10.2883 H        1 ZINC000040899447    0.1400
37     H37     1.4314    1.9172  -12.4308 H        1 ZINC000040899447    0.1400
38     H38     1.1922    0.3770  -14.3659 H        1 ZINC000040899447    0.1400
39     H39     1.8212   -1.9886  -14.1137 H        1 ZINC000040899447    0.1600
40     H40     1.4696   -0.7111   -8.6019 H        1 ZINC000040899447    0.1400
41     H41     2.8063   -0.4305   -0.5572 H        1 ZINC000040899447    0.1600
@<TRIPOS>BOND
1     1     2     1
2     1     28    1
3     1     29    1
4     1     30    1
5     2     3     2
6     2     4     2
7     2     5     1
8     5     27    ar
9     5     6     ar
10    6     7     ar
11    6     31    1
12    7     8     ar
13    7     32    1
14    8     9     1
15    8     25    ar
16    9     10    2
17    9     11    am
18    11    12    1
19    11    33    1
20    12    24    ar
21    12    13    ar
22    13    14    ar
23    13    34    1
24    14    15    ar
25    14    35    1
26    15    16    1
27    15    17    ar
28    17    18    1
29    17    24    ar
30    18    23    ar
31    18    19    ar
32    19    20    ar
33    19    36    1
34    20    21    ar
35    20    37    1
36    21    22    ar
37    21    38    1
38    22    23    ar
39    22    39    1
40    24    40    1
41    25    26    1
42    25    27    ar
43    27    41    1
@<TRIPOS>SUBSTRUCTURE
1   ZINC000040899447 1     RESIDUE    1   A     ZIN   1
