@<TRIPOS>MOLECULE
ZINC000003875259
59    61    1     0     0
SMALL
USER_CHARGES
@<TRIPOS>ATOM
1      C1      2.6274    3.0023   -2.7620 C.3      1 ZINC000003875259   -0.1500
2      C2      1.9066    1.7727   -2.2056 C.3      1 ZINC000003875259   -0.1300
3      C3      2.5955    0.5045   -2.7136 C.3      1 ZINC000003875259   -0.1000
4      C4      1.8747   -0.7251   -2.1572 C.3      1 ZINC000003875259   -0.1400
5      C5      2.5532   -1.9743   -2.6574 C.2      1 ZINC000003875259    0.5100
6      O6      3.4604   -1.8924   -3.4582 O.2      1 ZINC000003875259   -0.5700
7      N7      2.1518   -3.1824   -2.2150 N.am     1 ZINC000003875259   -0.5500
8      C8      2.8841   -4.3879   -2.6110 C.3      1 ZINC000003875259    0.1400
9      C9      4.0802   -4.5671   -1.7119 C.ar     1 ZINC000003875259   -0.0300
10     C10     5.0238   -3.5606   -1.6117 C.ar     1 ZINC000003875259   -0.1400
11     C11     6.1211   -3.7191   -0.7900 C.ar     1 ZINC000003875259   -0.1100
12     C12     6.2773   -4.8963   -0.0597 C.ar     1 ZINC000003875259   -0.0700
13     C13     7.4537   -5.0724    0.8251 C.ar     1 ZINC000003875259   -0.0200
14     C14     8.7353   -4.8198    0.3441 C.ar     1 ZINC000003875259   -0.1200
15     C15     9.8280   -4.9847    1.1717 C.ar     1 ZINC000003875259   -0.1500
16     C16     9.6578   -5.4007    2.4808 C.ar     1 ZINC000003875259   -0.1300
17     C17     8.3932   -5.6554    2.9735 C.ar     1 ZINC000003875259   -0.1100
18     C18     7.2809   -5.4891    2.1543 C.ar     1 ZINC000003875259    0.0600
19     C19     5.9205   -5.7611    2.6796 C.2      1 ZINC000003875259    0.0500
20     N20     4.7758   -5.6511    2.0134 N.2      1 ZINC000003875259   -0.3000
21     N21     3.8239   -5.9758    2.8201 N.pl3    1 ZINC000003875259   -0.1600
22     N22     4.3274   -6.2843    3.9640 N.2      1 ZINC000003875259   -0.2200
23     N23     5.6101   -6.1677    3.9062 N.2      1 ZINC000003875259   -0.3900
24     C24     5.3230   -5.9070   -0.1644 C.ar     1 ZINC000003875259    0.0100
25     C25     4.2273   -5.7352   -0.9857 C.ar     1 ZINC000003875259   -0.0700
26     C26     0.9832   -3.2902   -1.3381 C.3      1 ZINC000003875259    0.0600
27     H27     0.6682   -2.2938   -1.0284 H        1 ZINC000003875259    0.0700
28     C28     1.3414   -4.1045   -0.1216 C.2      1 ZINC000003875259    0.4700
29     O29     2.5115   -4.2682    0.1795 O.co2    1 ZINC000003875259   -0.6100
30     O30     0.4612   -4.5997    0.5613 O.co2    1 ZINC000003875259   -0.7000
31     C31    -0.1587   -3.9748   -2.0919 C.3      1 ZINC000003875259   -0.0900
32     C32    -0.5358   -3.1378   -3.3159 C.3      1 ZINC000003875259   -0.1400
33     C33     0.2903   -5.3658   -2.5440 C.3      1 ZINC000003875259   -0.1500
34     H34     3.6659    2.9954   -2.4310 H        1 ZINC000003875259    0.0500
35     H35     2.5931    2.9816   -3.8513 H        1 ZINC000003875259    0.0500
36     H36     2.1367    3.9058   -2.4002 H        1 ZINC000003875259    0.0500
37     H37     1.9409    1.7934   -1.1164 H        1 ZINC000003875259    0.0600
38     H38     0.8681    1.7795   -2.5367 H        1 ZINC000003875259    0.0600
39     H39     2.5612    0.4837   -3.8028 H        1 ZINC000003875259    0.0600
40     H40     3.6340    0.4976   -2.3826 H        1 ZINC000003875259    0.0700
41     H41     1.9090   -0.7044   -1.0679 H        1 ZINC000003875259    0.0900
42     H42     0.8362   -0.7183   -2.4882 H        1 ZINC000003875259    0.0800
43     H43     2.2303   -5.2555   -2.5231 H        1 ZINC000003875259    0.1000
44     H44     3.2178   -4.2875   -3.6438 H        1 ZINC000003875259    0.0600
45     H45     4.9017   -2.6490   -2.1779 H        1 ZINC000003875259    0.1100
46     H46     6.8575   -2.9329   -0.7130 H        1 ZINC000003875259    0.0900
47     H47     8.8749   -4.4953   -0.6765 H        1 ZINC000003875259    0.1200
48     H48    10.8211   -4.7883    0.7955 H        1 ZINC000003875259    0.1100
49     H49    10.5188   -5.5271    3.1203 H        1 ZINC000003875259    0.1100
50     H50     8.2673   -5.9801    3.9958 H        1 ZINC000003875259    0.1200
51     H51     5.4391   -6.8212    0.3988 H        1 ZINC000003875259    0.1000
52     H52     3.4871   -6.5174   -1.0673 H        1 ZINC000003875259    0.0900
53     H53    -1.0234   -4.0678   -1.4349 H        1 ZINC000003875259    0.0800
54     H54     0.3290   -3.0448   -3.9729 H        1 ZINC000003875259    0.0500
55     H55    -1.3493   -3.6255   -3.8529 H        1 ZINC000003875259    0.0400
56     H56    -0.8557   -2.1468   -2.9938 H        1 ZINC000003875259    0.0400
57     H57     0.7997   -5.8683   -1.7217 H        1 ZINC000003875259    0.0700
58     H58    -0.5804   -5.9494   -2.8428 H        1 ZINC000003875259    0.0400
59     H59     0.9716   -5.2707   -3.3895 H        1 ZINC000003875259    0.0500
@<TRIPOS>BOND
1     1     2     1
2     1     34    1
3     1     35    1
4     1     36    1
5     2     3     1
6     2     37    1
7     2     38    1
8     3     4     1
9     3     39    1
10    3     40    1
11    4     5     1
12    4     41    1
13    4     42    1
14    5     6     2
15    5     7     am
16    7     8     1
17    7     26    1
18    8     9     1
19    8     43    1
20    8     44    1
21    9     25    ar
22    9     10    ar
23    10    11    ar
24    10    45    1
25    11    12    ar
26    11    46    1
27    12    13    1
28    12    24    ar
29    13    18    ar
30    13    14    ar
31    14    15    ar
32    14    47    1
33    15    16    ar
34    15    48    1
35    16    17    ar
36    16    49    1
37    17    18    ar
38    17    50    1
39    18    19    1
40    19    23    1
41    19    20    2
42    20    21    1
43    21    22    1
44    22    23    2
45    24    25    ar
46    24    51    1
47    25    52    1
48    26    27    1
49    26    28    1
50    26    31    1
51    28    29    ar
52    28    30    ar
53    31    32    1
54    31    33    1
55    31    53    1
56    32    54    1
57    32    55    1
58    32    56    1
59    33    57    1
60    33    58    1
61    33    59    1
@<TRIPOS>SUBSTRUCTURE
1   ZINC000003875259 1     RESIDUE    1   A     ZIN   1
