@<TRIPOS>MOLECULE
ZINC000001999487
35   38    0    0    0
SMALL
USER_CHARGES
NO_NAME
@<TRIPOS>ATOM
1 N1       -0.0111     0.9658     0.0074 N.pl3  1 <0>      -0.7600
2 H2        0.0021    -0.0041     0.0020 H      1 <0>       0.4400
3 H3        0.8223     1.4622     0.0021 H      1 <0>       0.4400
4 C4       -1.1485     1.6021     0.0162 C.cat  1 <0>       0.7200
5 N5       -1.2564     2.9660     0.0182 N.pl3  1 <0>      -0.6900
6 C6       -2.6794     3.3330     0.0081 C.3    1 <0>       0.0900
7 C7       -3.4205     1.9818    -0.0141 C.3    1 <0>       0.1700
8 H8       -4.0341     1.8950     0.8825 H      1 <0>       0.1300
9 C9       -4.3038     1.9228    -1.2258 C.ar   1 <0>      -0.1100
10 C10      -5.1488     3.0269    -1.3783 C.ar   1 <0>      -0.1200
11 C11      -6.0543     3.1029    -2.4101 C.ar   1 <0>      -0.1000
12 C12      -6.1362     2.0591    -3.3132 C.ar   1 <0>      -0.1000
13 C13      -5.2943     0.9818    -3.1767 C.ar   1 <0>      -0.1200
14 C14      -4.3478     0.9130    -2.1457 C.ar   1 <0>      -0.0500
15 C15      -3.4356    -0.2675    -2.2347 C.3    1 <0>      -0.0500
16 C16      -3.2263    -1.0269    -0.9664 C.ar   1 <0>      -0.0500
17 C17      -3.6510    -2.3342    -0.8352 C.ar   1 <0>      -0.1000
18 C18      -3.3721    -3.0361     0.3239 C.ar   1 <0>      -0.0800
19 C19      -2.6627    -2.4355     1.3477 C.ar   1 <0>      -0.1000
20 C20      -2.2624    -1.1176     1.2326 C.ar   1 <0>      -0.1100
21 C21      -2.5796    -0.4014     0.0871 C.ar   1 <0>       0.0900
22 N22      -2.3735     0.9769     0.0186 N.pl3  1 <0>      -0.5200
23 H23      -0.5136     3.5898     0.0257 H      1 <0>       0.4500
24 H24      -2.9350     3.8932     0.9075 H      1 <0>       0.1200
25 H25      -2.9172     3.9128    -0.8838 H      1 <0>       0.1200
26 H26      -5.0889     3.8387    -0.6686 H      1 <0>       0.1300
27 H27      -6.6939     3.9669    -2.5137 H      1 <0>       0.1400
28 H28      -6.8555     2.0901    -4.1182 H      1 <0>       0.1300
29 H29      -5.3642     0.1669    -3.8820 H      1 <0>       0.1300
30 H30      -3.8385    -0.9536    -2.9797 H      1 <0>       0.1000
31 H31      -2.4644     0.0787    -2.5884 H      1 <0>       0.0900
32 H32      -4.2000    -2.8078    -1.6357 H      1 <0>       0.1400
33 H33      -3.7099    -4.0564     0.4297 H      1 <0>       0.1400
34 H34      -2.4215    -2.9967     2.2383 H      1 <0>       0.1400
35 H35      -1.7054    -0.6479     2.0298 H      1 <0>       0.1300
@<TRIPOS>BOND
1    1    2 1
2    1    3 1
3    1    4 ar
4    4   22 ar
5    4    5 ar
6    5    6 1
7    5   23 1
8    6    7 1
9    6   24 1
10    6   25 1
11    7    8 1
12    7   22 1
13    7    9 1
14    9   14 ar
15    9   10 ar
16   10   11 ar
17   10   26 1
18   11   12 ar
19   11   27 1
20   12   13 ar
21   12   28 1
22   13   14 ar
23   13   29 1
24   14   15 1
25   15   16 1
26   15   30 1
27   15   31 1
28   16   21 ar
29   16   17 ar
30   17   18 ar
31   17   32 1
32   18   19 ar
33   18   33 1
34   19   20 ar
35   19   34 1
36   20   21 ar
37   20   35 1
38   21   22 1
