@<TRIPOS>MOLECULE
ZINC000002005305
55   57    0    0    0
SMALL
NO_CHARGES
@<TRIPOS>ATOM
1 C1            -0.0178     1.4608     0.0101 C.3
2 N2             0.0021    -0.0041     0.0020 N.pl3
3 C3            -0.0995    -0.7211    -1.2103 C.2
4 C4             0.2481    -2.0639    -1.2560 C.2
5 N5             0.1517    -2.7330    -2.4111 N.2
6 C6            -0.2711    -2.1377    -3.5058 C.2
7 N7            -0.3563    -2.8593    -4.6695 N.pl3
8 N8            -0.6264    -0.8239    -3.5120 N.pl3
9 C9            -0.5486    -0.0946    -2.3776 C.2
10 O10           -0.8639     1.0857    -2.3711 O.2
11 N11            0.6889    -2.7024    -0.1074 N.pl3
12 C12            1.1442    -1.8912     1.0306 C.3
13 C13            0.1345    -0.7620     1.2567 C.3
14 H14            0.4885    -0.1050     2.0511 H
15 C15           -1.2237    -1.3522     1.6409 C.3
16 N16           -2.2135    -0.2766     1.7390 N.pl3
17 C17           -3.5294    -0.5714     2.0778 C.ar
18 C18           -3.9036    -1.8887     2.3290 C.ar
19 C19           -5.2051    -2.1837     2.6645 C.ar
20 C20           -6.1520    -1.1590     2.7530 C.ar
21 C21           -7.5480    -1.4718     3.1129 C.2
22 O22           -7.8761    -2.6218     3.3330 O.2
23 N23           -8.4598    -0.4829     3.1978 N.am
24 C24           -9.8461    -0.7935     3.5552 C.3
25 H25           -9.8614    -1.6150     4.2714 H
26 C26          -10.5003     0.4403     4.1803 C.3
27 C27           -9.8057     0.7710     5.5028 C.3
28 C28          -10.4501     1.9862     6.1185 C.2
29 O29          -11.3788     2.5368     5.5520 O.co2
30 O30          -10.0427     2.4188     7.1831 O.co2
31 C31          -10.6068    -1.1924     2.3169 C.2
32 O32          -10.0432    -1.2151     1.2361 O.co2
33 O33          -11.7859    -1.4924     2.3960 O.co2
34 C34           -5.7731     0.1626     2.5001 C.ar
35 C35           -4.4688     0.4519     2.1706 C.ar
36 H36            0.1702     1.8211     1.0215 H
37 H37            0.7549     1.8383    -0.6596 H
38 H38           -0.9932     1.8128    -0.3256 H
39 H39           -0.1064    -3.7966    -4.6784 H
40 H40           -0.6665    -2.4323    -5.4834 H
41 H41            0.6964    -3.6710    -0.0553 H
42 H42            1.2069    -2.5135     1.9233 H
43 H43            2.1229    -1.4653     0.8098 H
44 H44           -1.5378    -2.0667     0.8799 H
45 H45           -1.1409    -1.8586     2.6026 H
46 H46           -1.9508     0.6413     1.5676 H
47 H47           -3.1716    -2.6798     2.2602 H
48 H48           -5.4948    -3.2057     2.8590 H
49 H49           -8.1980     0.4345     3.0222 H
50 H50          -10.4061     1.2860     3.4990 H
51 H51          -11.5554     0.2380     4.3646 H
52 H52           -9.8999    -0.0747     6.1840 H
53 H53           -8.7506     0.9733     5.3184 H
54 H54           -6.5025     0.9563     2.5673 H
55 H55           -4.1753     1.4728     1.9755 H
@<TRIPOS>BOND
1    1    2 1
2    1   36 1
3    1   37 1
4    1   38 1
5    2   13 1
6    2    3 1
7    3    9 1
8    3    4 2
9    4    5 1
10    4   11 1
11    5    6 2
12    6    7 1
13    6    8 1
14    7   39 1
15    7   40 1
16    8    9 1
17    9   10 2
18   11   12 1
19   11   41 1
20   12   13 1
21   12   42 1
22   12   43 1
23   13   14 1
24   13   15 1
25   15   16 1
26   15   44 1
27   15   45 1
28   16   17 1
29   16   46 1
30   17   35 ar
31   17   18 ar
32   18   19 ar
33   18   47 1
34   19   20 ar
35   19   48 1
36   20   21 1
37   20   34 ar
38   21   22 2
39   21   23 am
40   23   24 1
41   23   49 1
42   24   25 1
43   24   26 1
44   24   31 1
45   26   27 1
46   26   50 1
47   26   51 1
48   27   28 1
49   27   52 1
50   27   53 1
51   28   29 ar
52   28   30 ar
53   31   32 ar
54   31   33 ar
55   34   35 ar
56   34   54 1
57   35   55 1
