@<TRIPOS>MOLECULE
ZINC000100296832
49   51    0    0    0
SMALL
USER_CHARGES
NO_NAME
@<TRIPOS>ATOM
1 C1        2.5745    -1.5545     1.7280 C.3    1 <0>      -0.1100
2 C2        2.0555    -2.9665     1.6379 C.ar   1 <0>      -0.0900
3 C3        2.2557    -3.7017     0.4834 C.ar   1 <0>      -0.1300
4 C4        1.7827    -4.9952     0.3952 C.ar   1 <0>      -0.1000
5 C5        1.1026    -5.5606     1.4725 C.ar   1 <0>      -0.0300
6 C6        0.5923    -6.9503     1.3839 C.2    1 <0>       0.0000
7 C7        1.0925    -7.8991     2.1846 C.2    1 <0>      -0.1300
8 C8        0.4897    -9.2803     2.1840 C.3    1 <0>       0.0800
9 N9        1.5353   -10.2708     1.8949 N.3    1 <0>      -0.5100
10 C10       2.4472   -10.4364     3.0556 C.3    1 <0>       0.0300
11 C11       3.1028   -11.8163     2.7974 C.3    1 <0>      -0.1200
12 C12       1.9413   -12.6448     2.2020 C.3    1 <0>      -0.1300
13 C13       0.9477   -11.6058     1.6501 C.3    1 <0>       0.0300
14 C14      -0.4718    -7.2885     0.4087 C.ar   1 <0>       0.1600
15 C15      -0.1241    -7.8006    -0.8435 C.ar   1 <0>      -0.1700
16 C16      -1.1234    -8.1142    -1.7492 C.ar   1 <0>      -0.0900
17 C17      -2.4429    -7.9077    -1.3796 C.ar   1 <0>      -0.1800
18 C18      -2.7241    -7.3923    -0.1116 C.ar   1 <0>       0.1700
19 C19      -4.1236    -7.1694     0.2918 C.2    1 <0>      -0.1500
20 C20      -4.3990    -6.5540     1.4606 C.2    1 <0>      -0.1400
21 C21      -3.3983    -5.6911     2.0858 C.2    1 <0>       0.5100
22 O22      -2.5047    -5.1993     1.4083 O.co2  1 <0>      -0.6500
23 O23      -3.4537    -5.4600     3.2871 O.co2  1 <0>      -0.7100
24 N24      -1.7416    -7.1069     0.7358 N.ar   1 <0>      -0.3700
25 C25       0.9042    -4.8152     2.6334 C.ar   1 <0>      -0.0700
26 C26       1.3858    -3.5243     2.7121 C.ar   1 <0>      -0.1200
27 H27       3.5904    -1.5653     2.1227 H      1 <0>       0.0600
28 H28       2.5750    -1.1036     0.7356 H      1 <0>       0.0600
29 H29       1.9333    -0.9734     2.3908 H      1 <0>       0.0600
30 H30       2.7828    -3.2625    -0.3507 H      1 <0>       0.1200
31 H31       1.9389    -5.5680    -0.5070 H      1 <0>       0.1200
32 H32       1.9282    -7.6749     2.8310 H      1 <0>       0.1200
33 H33       0.0538    -9.4869     3.1614 H      1 <0>       0.0500
34 H34      -0.2862    -9.3378     1.4206 H      1 <0>       0.0800
35 H35       3.2007    -9.6489     3.0683 H      1 <0>       0.0800
36 H36       1.8841   -10.4466     3.9888 H      1 <0>       0.0400
37 H37       3.9197   -11.7273     2.0813 H      1 <0>       0.0700
38 H38       3.4528   -12.2578     3.7305 H      1 <0>       0.0700
39 H39       2.3059   -13.2840     1.3978 H      1 <0>       0.0700
40 H40       1.4681   -13.2455     2.9787 H      1 <0>       0.0600
41 H41      -0.0067   -11.6923     2.1695 H      1 <0>       0.0400
42 H42       0.8064   -11.7589     0.5802 H      1 <0>       0.0800
43 H43       0.9136    -7.9502    -1.1028 H      1 <0>       0.1200
44 H44      -0.8796    -8.5111    -2.7236 H      1 <0>       0.1200
45 H45      -3.2449    -8.1422    -2.0639 H      1 <0>       0.1200
46 H46      -4.9289    -7.4985    -0.3481 H      1 <0>       0.1100
47 H47      -5.3587    -6.6990     1.9342 H      1 <0>       0.1000
48 H48       0.3779    -5.2483     3.4712 H      1 <0>       0.1200
49 H49       1.2328    -2.9457     3.6111 H      1 <0>       0.1200
@<TRIPOS>BOND
1    1    2 1
2    1   27 1
3    1   28 1
4    1   29 1
5    2   26 ar
6    2    3 ar
7    3    4 ar
8    3   30 1
9    4    5 ar
10    4   31 1
11    5    6 1
12    5   25 ar
13    6    7 2
14    6   14 1
15    7    8 1
16    7   32 1
17    8    9 1
18    8   33 1
19    8   34 1
20    9   13 1
21    9   10 1
22   10   11 1
23   10   35 1
24   10   36 1
25   11   12 1
26   11   37 1
27   11   38 1
28   12   13 1
29   12   39 1
30   12   40 1
31   13   41 1
32   13   42 1
33   14   24 ar
34   14   15 ar
35   15   16 ar
36   15   43 1
37   16   17 ar
38   16   44 1
39   17   18 ar
40   17   45 1
41   18   19 1
42   18   24 ar
43   19   20 2
44   19   46 1
45   20   21 1
46   20   47 1
47   21   22 ar
48   21   23 ar
49   25   26 ar
50   25   48 1
51   26   49 1
