@<TRIPOS>MOLECULE
ZINC000000000242
42    43    1     0     0
SMALL
USER_CHARGES
@<TRIPOS>ATOM
1      C1      1.2531    0.0160   -0.3508 C.3      1 ZINC000000000242    0.0200
2      N2      0.2048   -0.0190    0.6776 N.3      1 ZINC000000000242   -0.5400
3      C3      0.0518    1.2941    1.3183 C.3      1 ZINC000000000242    0.0300
4      C4     -1.0705   -0.4815    0.1139 C.3      1 ZINC000000000242    0.0600
5      C5     -1.0158   -1.9960   -0.0963 C.3      1 ZINC000000000242    0.0600
6      O6     -0.8665   -2.6471    1.1670 O.3      1 ZINC000000000242   -0.3500
7      C7     -0.8388   -4.0735    1.0859 C.3      1 ZINC000000000242    0.2100
8      C8     -2.0931   -4.5677    0.3624 C.3      1 ZINC000000000242   -0.1800
9      C9      0.3856   -4.5097    0.3234 C.ar     1 ZINC000000000242   -0.0900
10     C10     1.4972   -3.6895    0.2731 C.ar     1 ZINC000000000242   -0.1000
11     C11     2.6204   -4.0896   -0.4263 C.ar     1 ZINC000000000242   -0.1300
12     C12     2.6322   -5.3101   -1.0752 C.ar     1 ZINC000000000242   -0.1200
13     C13     1.5209   -6.1308   -1.0242 C.ar     1 ZINC000000000242   -0.1200
14     C14     0.3993   -5.7326   -0.3211 C.ar     1 ZINC000000000242   -0.1000
15     C15    -0.7987   -4.6549    2.4757 C.ar     1 ZINC000000000242    0.1400
16     C16    -1.7494   -4.2736    3.4032 C.ar     1 ZINC000000000242   -0.1400
17     C17    -1.7039   -4.8148    4.6791 C.ar     1 ZINC000000000242   -0.0800
18     C18    -0.6993   -5.7232    4.9751 C.ar     1 ZINC000000000242   -0.1700
19     C19     0.2170   -6.0569    3.9955 C.ar     1 ZINC000000000242    0.1000
20     N20     0.1400   -5.5259    2.7910 N.ar     1 ZINC000000000242   -0.4600
21     H21     2.1865    0.3618    0.0934 H        1 ZINC000000000242    0.0700
22     H22     1.3942   -0.9844   -0.7599 H        1 ZINC000000000242    0.0700
23     H23     0.9566    0.6965   -1.1490 H        1 ZINC000000000242    0.0200
24     H24    -0.1412    2.0497    0.5567 H        1 ZINC000000000242    0.0200
25     H25    -0.7834    1.2619    2.0180 H        1 ZINC000000000242    0.0700
26     H26     0.9664    1.5451    1.8555 H        1 ZINC000000000242    0.0700
27     H27    -1.8808   -0.2391    0.8014 H        1 ZINC000000000242    0.0800
28     H28    -1.2453    0.0119   -0.8422 H        1 ZINC000000000242    0.0500
29     H29    -1.9383   -2.3305   -0.5707 H        1 ZINC000000000242    0.0600
30     H30    -0.1681   -2.2437   -0.7352 H        1 ZINC000000000242    0.0600
31     H31    -2.1222   -4.1472   -0.6428 H        1 ZINC000000000242    0.0700
32     H32    -2.0720   -5.6557    0.3006 H        1 ZINC000000000242    0.0700
33     H33    -2.9788   -4.2522    0.9139 H        1 ZINC000000000242    0.0700
34     H34     1.4880   -2.7359    0.7801 H        1 ZINC000000000242    0.1300
35     H35     3.4885   -3.4484   -0.4662 H        1 ZINC000000000242    0.1200
36     H36     3.5094   -5.6224   -1.6222 H        1 ZINC000000000242    0.1200
37     H37     1.5300   -7.0842   -1.5314 H        1 ZINC000000000242    0.1200
38     H38    -0.4689   -6.3737   -0.2812 H        1 ZINC000000000242    0.1200
39     H39    -2.5179   -3.5627    3.1379 H        1 ZINC000000000242    0.1400
40     H40    -2.4334   -4.5350    5.4247 H        1 ZINC000000000242    0.1400
41     H41    -0.6333   -6.1643    5.9587 H        1 ZINC000000000242    0.1400
42     H42     1.0028   -6.7635    4.2181 H        1 ZINC000000000242    0.1600
@<TRIPOS>BOND
1     1     2     1
2     1     21    1
3     1     22    1
4     1     23    1
5     2     3     1
6     2     4     1
7     3     24    1
8     3     25    1
9     3     26    1
10    4     5     1
11    4     27    1
12    4     28    1
13    5     6     1
14    5     29    1
15    5     30    1
16    6     7     1
17    7     8     1
18    7     9     1
19    7     15    1
20    8     31    1
21    8     32    1
22    8     33    1
23    9     14    ar
24    9     10    ar
25    10    11    ar
26    10    34    1
27    11    12    ar
28    11    35    1
29    12    13    ar
30    12    36    1
31    13    14    ar
32    13    37    1
33    14    38    1
34    15    20    ar
35    15    16    ar
36    16    17    ar
37    16    39    1
38    17    18    ar
39    17    40    1
40    18    19    ar
41    18    41    1
42    19    20    ar
43    19    42    1
@<TRIPOS>SUBSTRUCTURE
1   ZINC000000000242 1     RESIDUE    1   A     ZIN   1
