@<TRIPOS>MOLECULE
ZINC000003873296
40    42    1     0     0
SMALL
USER_CHARGES
@<TRIPOS>ATOM
1      Cl1    -0.0278    0.0509    0.8853 Cl       1 ZINC000003873296   -0.0400
2      C2     -0.0484    1.7808    0.7413 C.ar     1 ZINC000003873296   -0.0200
3      C3     -1.2537    2.4524    0.6416 C.ar     1 ZINC000003873296   -0.1000
4      C4     -1.2702    3.8300    0.5264 C.ar     1 ZINC000003873296   -0.0800
5      C5     -0.0828    4.5369    0.5113 C.ar     1 ZINC000003873296   -0.0800
6      C6     -0.1017    6.0386    0.3862 C.3      1 ZINC000003873296    0.1100
7      O7     -1.4441    6.4825    0.1786 O.3      1 ZINC000003873296   -0.2000
8      N8     -1.5601    7.8728   -0.0632 N.2      1 ZINC000003873296   -0.2700
9      C9     -2.7295    8.4153   -0.1706 C.2      1 ZINC000003873296    0.1300
10     C10    -2.8569    9.9108   -0.3064 C.3      1 ZINC000003873296    0.1600
11     N11    -2.8270   10.2766   -1.7246 N.pl3    1 ZINC000003873296   -0.4100
12     C12    -1.7135   10.5714   -2.4642 C.2      1 ZINC000003873296    0.0300
13     C13    -2.1369   10.8498   -3.7119 C.2      1 ZINC000003873296    0.0100
14     N14    -3.4724   10.7284   -3.7336 N.pl3    1 ZINC000003873296   -0.4700
15     H15    -4.0368   10.8727   -4.5092 H        1 ZINC000003873296    0.4700
16     C16    -3.8923   10.3803   -2.5481 C.cat    1 ZINC000003873296    0.2900
17     C17    -3.9390    7.5697   -0.1601 C.ar     1 ZINC000003873296   -0.1000
18     C18    -4.1732    6.6682   -1.2001 C.ar     1 ZINC000003873296   -0.0600
19     C19    -5.3053    5.8807   -1.1848 C.ar     1 ZINC000003873296   -0.1000
20     C20    -6.2098    5.9825   -0.1410 C.ar     1 ZINC000003873296    0.0000
21     Cl21   -7.6324    4.9877   -0.1301 Cl       1 ZINC000003873296   -0.0300
22     C22    -5.9842    6.8739    0.8943 C.ar     1 ZINC000003873296   -0.1000
23     C23    -4.8521    7.6638    0.8940 C.ar     1 ZINC000003873296    0.0000
24     Cl24   -4.5699    8.7807    2.1927 Cl       1 ZINC000003873296   -0.0400
25     C25     1.1235    3.8662    0.6114 C.ar     1 ZINC000003873296   -0.0200
26     Cl26    2.6149    4.7545    0.5925 Cl       1 ZINC000003873296   -0.0500
27     C27     1.1404    2.4885    0.7320 C.ar     1 ZINC000003873296   -0.1000
28     H28    -2.1819    1.9005    0.6533 H        1 ZINC000003873296    0.1400
29     H29    -2.2113    4.3538    0.4478 H        1 ZINC000003873296    0.1400
30     H30     0.2911    6.4843    1.3001 H        1 ZINC000003873296    0.0900
31     H31     0.5158    6.3405   -0.4598 H        1 ZINC000003873296    0.0900
32     H32    -3.7996   10.2366    0.1331 H        1 ZINC000003873296    0.1500
33     H33    -2.0284   10.3945    0.2111 H        1 ZINC000003873296    0.1500
34     H34    -0.6918   10.5795   -2.1142 H        1 ZINC000003873296    0.2300
35     H35    -1.5107   11.1230   -4.5484 H        1 ZINC000003873296    0.2300
36     H36    -4.9219   10.2100   -2.2698 H        1 ZINC000003873296    0.2600
37     H37    -3.4693    6.5879   -2.0153 H        1 ZINC000003873296    0.1400
38     H38    -5.4872    5.1831   -1.9889 H        1 ZINC000003873296    0.1500
39     H39    -6.6933    6.9486    1.7054 H        1 ZINC000003873296    0.1600
40     H40     2.0816    1.9646    0.8102 H        1 ZINC000003873296    0.1500
@<TRIPOS>BOND
1     1     2     1
2     2     27    ar
3     2     3     ar
4     3     4     ar
5     3     28    1
6     4     5     ar
7     4     29    1
8     5     6     1
9     5     25    ar
10    6     7     1
11    6     30    1
12    6     31    1
13    7     8     1
14    8     9     2
15    9     10    1
16    9     17    1
17    10    11    1
18    10    32    1
19    10    33    1
20    11    16    ar
21    11    12    1
22    12    13    2
23    12    34    1
24    13    14    1
25    13    35    1
26    14    15    1
27    14    16    ar
28    16    36    1
29    17    23    ar
30    17    18    ar
31    18    19    ar
32    18    37    1
33    19    20    ar
34    19    38    1
35    20    21    1
36    20    22    ar
37    22    23    ar
38    22    39    1
39    23    24    1
40    25    26    1
41    25    27    ar
42    27    40    1
@<TRIPOS>SUBSTRUCTURE
1   ZINC000003873296 1     RESIDUE    1   A     ZIN   1
