@<TRIPOS>MOLECULE
ZINC000000057435
44    45    1     0     0
SMALL
USER_CHARGES
@<TRIPOS>ATOM
1      C1     -0.0184    1.5028    0.0103 C.3      1 ZINC000000057435   -0.1300
2      C2      0.0021   -0.0041    0.0020 C.ar     1 ZINC000000057435   -0.0700
3      C3      0.0058   -0.6875   -1.1996 C.ar     1 ZINC000000057435   -0.1100
4      C4      0.0249   -2.0690   -1.2099 C.ar     1 ZINC000000057435   -0.0600
5      C5      0.0295   -2.8134   -2.5202 C.3      1 ZINC000000057435   -0.0300
6      C6      0.0104   -1.8113   -3.6762 C.3      1 ZINC000000057435   -0.1500
7      C7      1.2904   -3.6750   -2.6130 C.3      1 ZINC000000057435   -0.1400
8      C8     -1.2078   -3.7098   -2.6018 C.3      1 ZINC000000057435   -0.1400
9      C9      0.0405   -2.7702   -0.0132 C.ar     1 ZINC000000057435    0.1100
10     O10     0.0598   -4.1290   -0.0207 O.3      1 ZINC000000057435   -0.4800
11     C11     0.0368   -2.0819    1.1916 C.ar     1 ZINC000000057435   -0.0900
12     C12     0.0542   -2.8405    2.4936 C.3      1 ZINC000000057435   -0.1300
13     C13     0.0229   -0.7007    1.1964 C.ar     1 ZINC000000057435   -0.1200
14     C14     0.0193    0.0476    2.5045 C.3      1 ZINC000000057435   -0.0700
15     C15     1.4388    0.3113    2.9363 C.cat    1 ZINC000000057435    0.5200
16     N16     2.1156   -0.5291    3.6833 N.pl3    1 ZINC000000057435   -0.6300
17     H17     1.7816   -1.3750    4.0205 H        1 ZINC000000057435    0.4600
18     C18     3.4616    0.0137    3.9280 C.3      1 ZINC000000057435    0.0600
19     C19     3.4433    1.3563    3.1681 C.3      1 ZINC000000057435    0.0600
20     N20     2.0911    1.3956    2.5883 N.pl3    1 ZINC000000057435   -0.6300
21     H21     1.0042    1.8801    0.0026 H        1 ZINC000000057435    0.0700
22     H22    -0.5455    1.8639   -0.8728 H        1 ZINC000000057435    0.0900
23     H23    -0.5286    1.8543    0.9071 H        1 ZINC000000057435    0.0700
24     H24    -0.0067   -0.1411   -2.1312 H        1 ZINC000000057435    0.1400
25     H25     0.8918   -1.1727   -3.6181 H        1 ZINC000000057435    0.0600
26     H26     0.0136   -2.3497   -4.6239 H        1 ZINC000000057435    0.0700
27     H27    -0.8880   -1.1975   -3.6101 H        1 ZINC000000057435    0.0600
28     H28     1.3040   -4.3889   -1.7895 H        1 ZINC000000057435    0.0600
29     H29     1.2937   -4.2134   -3.5607 H        1 ZINC000000057435    0.0700
30     H30     2.1719   -3.0364   -2.5549 H        1 ZINC000000057435    0.0500
31     H31    -2.1061   -3.0960   -2.5358 H        1 ZINC000000057435    0.0500
32     H32    -1.2045   -4.2482   -3.5496 H        1 ZINC000000057435    0.0600
33     H33    -1.1942   -4.4237   -1.7783 H        1 ZINC000000057435    0.0800
34     H34     0.9487   -4.5097   -0.0270 H        1 ZINC000000057435    0.3900
35     H35     1.0859   -3.0087    2.8023 H        1 ZINC000000057435    0.0700
36     H36    -0.4641   -2.2618    3.2582 H        1 ZINC000000057435    0.0700
37     H37    -0.4467   -3.7996    2.3620 H        1 ZINC000000057435    0.0900
38     H38    -0.5045    0.9953    2.3796 H        1 ZINC000000057435    0.1400
39     H39    -0.4863   -0.5497    3.2634 H        1 ZINC000000057435    0.1400
40     H40     3.6229    0.1768    4.9936 H        1 ZINC000000057435    0.1300
41     H41     4.2241   -0.6494    3.5194 H        1 ZINC000000057435    0.1300
42     H42     3.5955    2.1891    3.8546 H        1 ZINC000000057435    0.1300
43     H43     4.1967    1.3629    2.3804 H        1 ZINC000000057435    0.1300
44     H44     1.7362    2.1124    2.0396 H        1 ZINC000000057435    0.4600
@<TRIPOS>BOND
1     1     2     1
2     1     21    1
3     1     22    1
4     1     23    1
5     2     13    ar
6     2     3     ar
7     3     4     ar
8     3     24    1
9     4     5     1
10    4     9     ar
11    5     6     1
12    5     7     1
13    5     8     1
14    6     25    1
15    6     26    1
16    6     27    1
17    7     28    1
18    7     29    1
19    7     30    1
20    8     31    1
21    8     32    1
22    8     33    1
23    9     10    1
24    9     11    ar
25    10    34    1
26    11    12    1
27    11    13    ar
28    12    35    1
29    12    36    1
30    12    37    1
31    13    14    1
32    14    15    1
33    14    38    1
34    14    39    1
35    15    20    ar
36    15    16    ar
37    16    17    1
38    16    18    1
39    18    19    1
40    18    40    1
41    18    41    1
42    19    20    1
43    19    42    1
44    19    43    1
45    20    44    1
@<TRIPOS>SUBSTRUCTURE
1   ZINC000000057435 1     RESIDUE    1   A     ZIN   1
