@<TRIPOS>MOLECULE
ZINC000003938746
85    90    1     0     0
SMALL
USER_CHARGES
@<TRIPOS>ATOM
1      C1     -0.0176    1.4478    0.0100 C.3      1 ZINC000003938746    0.0300
2      O2      0.0021   -0.0041    0.0020 O.3      1 ZINC000003938746   -0.3300
3      C3     -1.1855   -0.6297    0.0100 C.2      1 ZINC000003938746    0.4800
4      O4     -2.2076    0.0145    0.0232 O.2      1 ZINC000003938746   -0.5100
5      C5     -1.2439   -2.1355    0.0025 C.3      1 ZINC000003938746   -0.0700
6      H6     -0.7360   -2.5226    0.8858 H        1 ZINC000003938746    0.1300
7      C7     -0.5530   -2.6655   -1.2554 C.3      1 ZINC000003938746    0.1000
8      H8     -1.0594   -2.2777   -2.1393 H        1 ZINC000003938746    0.0800
9      O9      0.8119   -2.2424   -1.2638 O.3      1 ZINC000003938746   -0.3600
10     C10     1.3565   -2.0623   -2.5726 C.3      1 ZINC000003938746    0.0300
11     C11    -0.6140   -4.1946   -1.2616 C.3      1 ZINC000003938746    0.0700
12     H12    -0.1132   -4.5821   -0.3745 H        1 ZINC000003938746    0.1100
13     O13     0.0471   -4.7009   -2.4511 O.3      1 ZINC000003938746   -0.3400
14     C14     0.6344   -5.9100   -2.3568 C.2      1 ZINC000003938746    0.5200
15     O15     0.5953   -6.5244   -1.3093 O.2      1 ZINC000003938746   -0.4900
16     C16     1.3248   -6.4875   -3.5251 C.ar     1 ZINC000003938746   -0.0600
17     C17     1.3756   -5.7794   -4.7289 C.ar     1 ZINC000003938746   -0.1800
18     C18     2.0237   -6.3228   -5.8220 C.ar     1 ZINC000003938746    0.1400
19     O19     2.0739   -5.6340   -6.9937 O.3      1 ZINC000003938746   -0.3000
20     C20     1.4357   -4.3558   -7.0226 C.3      1 ZINC000003938746    0.0200
21     C21     2.6256   -7.5746   -5.7247 C.ar     1 ZINC000003938746    0.0700
22     O22     3.2621   -8.1066   -6.8009 O.3      1 ZINC000003938746   -0.3100
23     C23     4.6525   -7.8093   -6.9447 C.3      1 ZINC000003938746    0.0400
24     C24     2.5770   -8.2822   -4.5264 C.ar     1 ZINC000003938746    0.1400
25     O25     3.1668   -9.5042   -4.4345 O.3      1 ZINC000003938746   -0.2900
26     C26     3.0783  -10.1743   -3.1754 C.3      1 ZINC000003938746    0.0200
27     C27     1.9344   -7.7415   -3.4287 C.ar     1 ZINC000003938746   -0.1700
28     C28    -2.0761   -4.6441   -1.2595 C.3      1 ZINC000003938746   -0.1500
29     C29    -2.7725   -4.1177   -0.0029 C.3      1 ZINC000003938746   -0.1000
30     H30    -2.2856   -4.5253    0.8831 H        1 ZINC000003938746    0.1300
31     C31    -4.2418   -4.5431   -0.0229 C.3      1 ZINC000003938746   -0.0100
32     N32    -4.8988   -4.0297   -1.2331 N.4      1 ZINC000003938746   -0.3800
33     H33    -4.4390   -4.3989   -2.0519 H        1 ZINC000003938746    0.4300
34     C34    -6.3065   -4.4714   -1.2123 C.3      1 ZINC000003938746    0.0000
35     C35    -6.8883   -4.2199    0.1864 C.3      1 ZINC000003938746   -0.0700
36     C36    -6.5527   -2.8056    0.5879 C.2      1 ZINC000003938746   -0.1500
37     C37    -5.6347   -2.0490   -0.0596 C.2      1 ZINC000003938746    0.0200
38     N38    -5.5506   -0.8176    0.5311 N.pl3    1 ZINC000003938746   -0.5600
39     C39    -6.4185   -0.7504    1.5841 C.ar     1 ZINC000003938746    0.1500
40     C40    -6.7052    0.2664    2.4915 C.ar     1 ZINC000003938746   -0.1700
41     C41    -7.6637   -0.0057    3.4592 C.ar     1 ZINC000003938746    0.1700
42     O42    -7.9757    0.9582    4.3657 O.3      1 ZINC000003938746   -0.3100
43     C43    -8.9670    0.6337    5.3424 C.3      1 ZINC000003938746    0.0200
44     C44    -8.3141   -1.2313    3.5299 C.ar     1 ZINC000003938746   -0.2200
45     C45    -8.0488   -2.2487    2.6477 C.ar     1 ZINC000003938746   -0.0200
46     C46    -7.0870   -2.0006    1.6633 C.ar     1 ZINC000003938746   -0.1300
47     C47    -4.8441   -2.5622   -1.2549 C.3      1 ZINC000003938746    0.1100
48     H48    -5.3175   -2.2066   -2.1701 H        1 ZINC000003938746    0.1500
49     C49    -3.4086   -2.0543   -1.2122 C.3      1 ZINC000003938746   -0.1600
50     C50    -2.7035   -2.5878    0.0161 C.3      1 ZINC000003938746   -0.0700
51     H51    -3.1977   -2.2110    0.9116 H        1 ZINC000003938746    0.1100
52     H52     1.0050    1.8251    0.0023 H        1 ZINC000003938746    0.1100
53     H53    -0.5448    1.8089   -0.8731 H        1 ZINC000003938746    0.0700
54     H54    -0.5278    1.7993    0.9068 H        1 ZINC000003938746    0.0700
55     H55     2.3951   -1.7411   -2.4929 H        1 ZINC000003938746    0.0900
56     H56     1.3085   -3.0043   -3.1189 H        1 ZINC000003938746    0.0600
57     H57     0.7815   -1.3042   -3.1043 H        1 ZINC000003938746    0.0400
58     H58     0.9086   -4.8085   -4.8051 H        1 ZINC000003938746    0.1500
59     H59     0.3758   -4.4736   -6.7974 H        1 ZINC000003938746    0.0600
60     H60     1.8948   -3.7036   -6.2796 H        1 ZINC000003938746    0.0600
61     H61     1.5499   -3.9151   -8.0130 H        1 ZINC000003938746    0.1100
62     H62     5.1945   -8.1762   -6.0731 H        1 ZINC000003938746    0.0500
63     H63     5.0368   -8.2942   -7.8421 H        1 ZINC000003938746    0.1000
64     H64     4.7867   -6.7309   -7.0286 H        1 ZINC000003938746    0.0500
65     H65     3.5487   -9.5634   -2.4049 H        1 ZINC000003938746    0.0600
66     H66     2.0304  -10.3351   -2.9222 H        1 ZINC000003938746    0.0600
67     H67     3.5884  -11.1355   -3.2388 H        1 ZINC000003938746    0.1100
68     H68     1.8973   -8.2905   -2.4994 H        1 ZINC000003938746    0.1500
69     H69    -2.5779   -4.2515   -2.1439 H        1 ZINC000003938746    0.0700
70     H70    -2.1212   -5.7331   -1.2703 H        1 ZINC000003938746    0.1000
71     H71    -4.3033   -5.6313   -0.0120 H        1 ZINC000003938746    0.1400
72     H72    -4.7453   -4.1455    0.8583 H        1 ZINC000003938746    0.1500
73     H73    -6.8765   -3.9082   -1.9512 H        1 ZINC000003938746    0.1300
74     H74    -6.3583   -5.5354   -1.4431 H        1 ZINC000003938746    0.1400
75     H75    -7.9704   -4.3488    0.1634 H        1 ZINC000003938746    0.1200
76     H76    -6.4492   -4.9185    0.8986 H        1 ZINC000003938746    0.1000
77     H77    -4.9633   -0.1005    0.2453 H        1 ZINC000003938746    0.4300
78     H78    -6.2050    1.2224    2.4451 H        1 ZINC000003938746    0.1400
79     H79    -9.1205    1.4878    6.0020 H        1 ZINC000003938746    0.1100
80     H80    -9.9037    0.3883    4.8418 H        1 ZINC000003938746    0.0600
81     H81    -8.6331   -0.2225    5.9285 H        1 ZINC000003938746    0.0600
82     H82    -9.0512   -1.3885    4.3035 H        1 ZINC000003938746    0.1300
83     H83    -8.5595   -3.1982    2.7111 H        1 ZINC000003938746    0.1400
84     H84    -2.8815   -2.3826   -2.1080 H        1 ZINC000003938746    0.1000
85     H85    -3.4108   -0.9650   -1.1735 H        1 ZINC000003938746    0.1400
@<TRIPOS>BOND
1     1     2     1
2     1     52    1
3     1     53    1
4     1     54    1
5     2     3     1
6     3     4     2
7     3     5     1
8     5     6     1
9     5     50    1
10    5     7     1
11    7     8     1
12    7     9     1
13    7     11    1
14    9     10    1
15    10    55    1
16    10    56    1
17    10    57    1
18    11    12    1
19    11    13    1
20    11    28    1
21    13    14    1
22    14    15    2
23    14    16    1
24    16    27    ar
25    16    17    ar
26    17    18    ar
27    17    58    1
28    18    19    1
29    18    21    ar
30    19    20    1
31    20    59    1
32    20    60    1
33    20    61    1
34    21    22    1
35    21    24    ar
36    22    23    1
37    23    62    1
38    23    63    1
39    23    64    1
40    24    25    1
41    24    27    ar
42    25    26    1
43    26    65    1
44    26    66    1
45    26    67    1
46    27    68    1
47    28    29    1
48    28    69    1
49    28    70    1
50    29    30    1
51    29    50    1
52    29    31    1
53    31    32    1
54    31    71    1
55    31    72    1
56    32    33    1
57    32    47    1
58    32    34    1
59    34    35    1
60    34    73    1
61    34    74    1
62    35    36    1
63    35    75    1
64    35    76    1
65    36    46    1
66    36    37    2
67    37    38    1
68    37    47    1
69    38    39    1
70    38    77    1
71    39    46    ar
72    39    40    ar
73    40    41    ar
74    40    78    1
75    41    42    1
76    41    44    ar
77    42    43    1
78    43    79    1
79    43    80    1
80    43    81    1
81    44    45    ar
82    44    82    1
83    45    46    ar
84    45    83    1
85    47    48    1
86    47    49    1
87    49    50    1
88    49    84    1
89    49    85    1
90    50    51    1
@<TRIPOS>SUBSTRUCTURE
1   ZINC000003938746 1     RESIDUE    1   A     ZIN   1
