@<TRIPOS>MOLECULE
ZINC000019632614
56    59    1     0     0
SMALL
USER_CHARGES
@<TRIPOS>ATOM
1      C1      0.7668    1.4366    0.3640 C.3      1 ZINC000019632614    0.0200
2      O2      0.8054    0.0081    0.3638 O.3      1 ZINC000019632614   -0.3000
3      C3      1.2126   -0.5977   -0.7820 C.ar     1 ZINC000019632614    0.1600
4      C4      1.2658   -1.9970   -0.8453 C.ar     1 ZINC000019632614    0.1100
5      O5      0.9088   -2.7333    0.2408 O.3      1 ZINC000019632614   -0.3000
6      C6      0.9843   -4.1547    0.1144 C.3      1 ZINC000019632614    0.0600
7      C7      0.5474   -4.8074    1.4274 C.3      1 ZINC000019632614   -0.1500
8      C8      0.6282   -6.3293    1.2919 C.3      1 ZINC000019632614   -0.0100
9      N9      0.2088   -6.9560    2.5526 N.4      1 ZINC000019632614   -0.3800
10     H10     0.7638   -6.5897    3.3114 H        1 ZINC000019632614    0.4300
11     C11     0.3992   -8.4103    2.4639 C.3      1 ZINC000019632614   -0.0400
12     C12    -0.0383   -9.0609    3.7786 C.3      1 ZINC000019632614    0.0400
13     O13    -1.4038   -8.7249    4.0395 O.3      1 ZINC000019632614   -0.3600
14     C14    -1.6447   -7.3168    4.1112 C.3      1 ZINC000019632614    0.0400
15     C15    -1.2101   -6.6627    2.7972 C.3      1 ZINC000019632614   -0.0500
16     C16     1.6718   -2.6293   -1.9861 C.ar     1 ZINC000019632614   -0.1400
17     C17     2.0391   -1.8723   -3.1050 C.ar     1 ZINC000019632614   -0.1900
18     C18     1.9878   -0.4574   -3.0485 C.ar     1 ZINC000019632614    0.2100
19     C19     1.5633    0.1696   -1.8708 C.ar     1 ZINC000019632614   -0.1800
20     N20     2.3449    0.2447   -4.1354 N.ar     1 ZINC000019632614   -0.5400
21     C21     2.7331   -0.3709   -5.2268 C.ar     1 ZINC000019632614    0.3500
22     N22     2.7967   -1.6892   -5.3257 N.ar     1 ZINC000019632614   -0.5800
23     C23     2.4664   -2.4773   -4.3110 C.ar     1 ZINC000019632614    0.4600
24     N24     2.5385   -3.8508   -4.4279 N.pl3    1 ZINC000019632614   -0.6400
25     C25     3.0768   -4.4271   -5.5834 C.ar     1 ZINC000019632614    0.1500
26     C26     2.5564   -5.6175   -6.0738 C.ar     1 ZINC000019632614   -0.1100
27     C27     3.0891   -6.1854   -7.2150 C.ar     1 ZINC000019632614   -0.1200
28     C28     4.1414   -5.5692   -7.8699 C.ar     1 ZINC000019632614    0.1000
29     F29     4.6609   -6.1266   -8.9854 F        1 ZINC000019632614   -0.1200
30     C30     4.6624   -4.3807   -7.3829 C.ar     1 ZINC000019632614   -0.0500
31     Cl31    5.9818   -3.6097   -8.2066 Cl       1 ZINC000019632614   -0.0300
32     C32     4.1286   -3.8065   -6.2449 C.ar     1 ZINC000019632614   -0.0700
33     H33     1.7648    1.8270    0.1650 H        1 ZINC000019632614    0.0600
34     H34     0.0807    1.7816   -0.4095 H        1 ZINC000019632614    0.0700
35     H35     0.4255    1.7907    1.3368 H        1 ZINC000019632614    0.1100
36     H36     0.3272   -4.4832   -0.6909 H        1 ZINC000019632614    0.0700
37     H37     2.0101   -4.4453   -0.1122 H        1 ZINC000019632614    0.0700
38     H38     1.2045   -4.4789    2.2326 H        1 ZINC000019632614    0.1000
39     H39    -0.4784   -4.5168    1.6539 H        1 ZINC000019632614    0.1000
40     H40    -0.0288   -6.6578    0.4866 H        1 ZINC000019632614    0.1400
41     H41     1.6540   -6.6199    1.0653 H        1 ZINC000019632614    0.1400
42     H42    -0.2011   -8.8063    1.6448 H        1 ZINC000019632614    0.1400
43     H43     1.4516   -8.6288    2.2826 H        1 ZINC000019632614    0.1400
44     H44     0.0615  -10.1435    3.6999 H        1 ZINC000019632614    0.1400
45     H45     0.5884   -8.6951    4.5919 H        1 ZINC000019632614    0.0800
46     H46    -2.7075   -7.1370    4.2732 H        1 ZINC000019632614    0.1400
47     H47    -1.0730   -6.8913    4.9360 H        1 ZINC000019632614    0.0800
48     H48    -1.3525   -5.5841    2.8635 H        1 ZINC000019632614    0.1400
49     H49    -1.8097   -7.0594    1.9779 H        1 ZINC000019632614    0.1400
50     H50     1.7097   -3.7079   -2.0245 H        1 ZINC000019632614    0.1400
51     H51     1.5190    1.2472   -1.8138 H        1 ZINC000019632614    0.1600
52     H52     3.0130    0.2247   -6.0831 H        1 ZINC000019632614    0.2000
53     H53     2.2159   -4.4164   -3.7089 H        1 ZINC000019632614    0.4200
54     H54     1.7358   -6.0994   -5.5631 H        1 ZINC000019632614    0.1400
55     H55     2.6843   -7.1113   -7.5963 H        1 ZINC000019632614    0.1500
56     H56     4.5343   -2.8803   -5.8656 H        1 ZINC000019632614    0.1600
@<TRIPOS>BOND
1     1     2     1
2     1     33    1
3     1     34    1
4     1     35    1
5     2     3     1
6     3     19    ar
7     3     4     ar
8     4     5     1
9     4     16    ar
10    5     6     1
11    6     7     1
12    6     36    1
13    6     37    1
14    7     8     1
15    7     38    1
16    7     39    1
17    8     9     1
18    8     40    1
19    8     41    1
20    9     10    1
21    9     15    1
22    9     11    1
23    11    12    1
24    11    42    1
25    11    43    1
26    12    13    1
27    12    44    1
28    12    45    1
29    13    14    1
30    14    15    1
31    14    46    1
32    14    47    1
33    15    48    1
34    15    49    1
35    16    17    ar
36    16    50    1
37    17    23    ar
38    17    18    ar
39    18    19    ar
40    18    20    ar
41    19    51    1
42    20    21    ar
43    21    22    ar
44    21    52    1
45    22    23    ar
46    23    24    1
47    24    25    1
48    24    53    1
49    25    32    ar
50    25    26    ar
51    26    27    ar
52    26    54    1
53    27    28    ar
54    27    55    1
55    28    29    1
56    28    30    ar
57    30    31    1
58    30    32    ar
59    32    56    1
@<TRIPOS>SUBSTRUCTURE
1   ZINC000019632614 1     RESIDUE    1   A     ZIN   1
