@<TRIPOS>MOLECULE
ZINC000000020228
34    34    1     0     0
SMALL
USER_CHARGES
@<TRIPOS>ATOM
1      C1      0.2989    1.3973   -0.2914 C.3      1 ZINC000000020228   -0.1400
2      C2      0.0296   -0.0841   -0.0195 C.3      1 ZINC000000020228    0.0400
3      H3     -1.0289   -0.2272    0.1973 H        1 ZINC000000020228    0.0900
4      N4      0.8291   -0.5238    1.1317 N.3      1 ZINC000000020228   -0.6700
5      C5     -0.0110   -0.6822    2.3263 C.3      1 ZINC000000020228    0.1000
6      C6     -1.0482   -1.7794    2.0786 C.3      1 ZINC000000020228   -0.1800
7      C7      0.8659   -1.0693    3.5189 C.3      1 ZINC000000020228   -0.1400
8      C8     -0.7257    0.6370    2.6258 C.3      1 ZINC000000020228   -0.1400
9      C9      0.4079   -0.8943   -1.2326 C.2      1 ZINC000000020228    0.3900
10     O10     1.4265   -1.5521   -1.2289 O.2      1 ZINC000000020228   -0.4400
11     C11    -0.4590   -0.8871   -2.4219 C.ar     1 ZINC000000020228   -0.1600
12     C12    -1.6315   -0.1252   -2.4321 C.ar     1 ZINC000000020228   -0.0700
13     C13    -2.4392   -0.1233   -3.5500 C.ar     1 ZINC000000020228   -0.1200
14     C14    -2.0926   -0.8729   -4.6600 C.ar     1 ZINC000000020228   -0.0800
15     C15    -0.9329   -1.6309   -4.6582 C.ar     1 ZINC000000020228   -0.0500
16     Cl16   -0.5082   -2.5675   -6.0567 Cl       1 ZINC000000020228   -0.0600
17     C17    -0.1113   -1.6377   -3.5496 C.ar     1 ZINC000000020228   -0.0500
18     H18     1.3707    1.5560   -0.4101 H        1 ZINC000000020228    0.0700
19     H19    -0.2163    1.6988   -1.2034 H        1 ZINC000000020228    0.0600
20     H20    -0.0660    1.9925    0.5457 H        1 ZINC000000020228    0.0700
21     H21     1.3251   -1.3773    0.9227 H        1 ZINC000000020228    0.3500
22     H22    -0.5436   -2.6906    1.7574 H        1 ZINC000000020228    0.0600
23     H23    -1.5983   -1.9739    2.9993 H        1 ZINC000000020228    0.0700
24     H24    -1.7417   -1.4553    1.3026 H        1 ZINC000000020228    0.0600
25     H25     1.6048   -0.2877    3.6954 H        1 ZINC000000020228    0.0700
26     H26     0.2425   -1.1869    4.4053 H        1 ZINC000000020228    0.0600
27     H27     1.3751   -2.0092    3.3055 H        1 ZINC000000020228    0.0500
28     H28    -1.4165    0.8682    1.8150 H        1 ZINC000000020228    0.0500
29     H29    -1.2795    0.5462    3.5602 H        1 ZINC000000020228    0.0600
30     H30     0.0098    1.4365    2.7155 H        1 ZINC000000020228    0.0700
31     H31    -1.9042    0.4601   -1.5663 H        1 ZINC000000020228    0.1400
32     H32    -3.3450    0.4648   -3.5588 H        1 ZINC000000020228    0.1400
33     H33    -2.7294   -0.8675   -5.5322 H        1 ZINC000000020228    0.1400
34     H34     0.7925   -2.2288   -3.5490 H        1 ZINC000000020228    0.1400
@<TRIPOS>BOND
1     1     2     1
2     1     18    1
3     1     19    1
4     1     20    1
5     2     3     1
6     2     4     1
7     2     9     1
8     4     5     1
9     4     21    1
10    5     6     1
11    5     7     1
12    5     8     1
13    6     22    1
14    6     23    1
15    6     24    1
16    7     25    1
17    7     26    1
18    7     27    1
19    8     28    1
20    8     29    1
21    8     30    1
22    9     10    2
23    9     11    1
24    11    17    ar
25    11    12    ar
26    12    13    ar
27    12    31    1
28    13    14    ar
29    13    32    1
30    14    15    ar
31    14    33    1
32    15    16    1
33    15    17    ar
34    17    34    1
@<TRIPOS>SUBSTRUCTURE
1   ZINC000000020228 1     RESIDUE    1   A     ZIN   1
