@<TRIPOS>MOLECULE
ZINC000003881958
52   56    0    0    0
SMALL
USER_CHARGES
NO_NAME
@<TRIPOS>ATOM
1 C1       -0.2668    -0.7782    -0.8065 C.1    1 <0>      -0.1800
2 C2       -0.2598     0.3943    -0.7478 C.1    1 <0>      -0.2100
3 C3       -0.2512     1.8644    -0.6742 C.3    1 <0>       0.2500
4 O4       -0.9195     2.3040     0.5099 O.3    1 <0>      -0.5400
5 C5       -0.9271     2.4687    -1.9301 C.3    1 <0>      -0.1400
6 C6        0.1778     3.2556    -2.6865 C.3    1 <0>      -0.1100
7 C7        1.4678     2.5790    -2.2102 C.3    1 <0>      -0.0800
8 H8        1.5928     1.6134    -2.7002 H      1 <0>       0.0700
9 C9        2.7347     3.4044    -2.3411 C.3    1 <0>      -0.0800
10 H10       2.6250     4.3374    -1.7883 H      1 <0>       0.0900
11 C11       3.0112     3.7068    -3.8151 C.3    1 <0>      -0.1100
12 C12       4.2640     4.5795    -3.9327 C.3    1 <0>      -0.0900
13 C13       5.4086     3.8641    -3.2304 C.2    1 <0>      -0.0500
14 C14       6.5418     3.7142    -3.9143 C.2    1 <0>      -0.1000
15 C15       7.6577     3.0226    -3.2613 C.2    1 <0>       0.0000
16 C16       7.5380     2.5334    -1.9828 C.2    1 <0>      -0.2000
17 C17       8.7816     1.9527    -1.7247 C.2    1 <0>       0.0100
18 N18       9.5020     2.1316    -2.8024 N.2    1 <0>      -0.3700
19 O19       8.8899     2.7282    -3.6674 O.3    1 <0>       0.1100
20 C20       6.3096     2.6543    -1.1495 C.3    1 <0>      -0.0300
21 C21       5.1826     3.3869    -1.8353 C.3    1 <0>      -0.0200
22 C22       4.9114     4.6367    -0.9954 C.3    1 <0>      -0.1600
23 C23       3.8849     2.5788    -1.7432 C.3    1 <0>      -0.0600
24 H24       3.9904     1.6639    -2.3262 H      1 <0>       0.0700
25 C25       3.6174     2.2168    -0.2854 C.3    1 <0>      -0.1200
26 C26       2.2634     1.5094    -0.1159 C.3    1 <0>      -0.1000
27 C27       1.1819     2.3862    -0.6966 C.3    1 <0>      -0.0400
28 C28       1.2433     3.7758    -0.0594 C.3    1 <0>      -0.1400
29 H29      -0.2730    -1.8269    -0.8591 H      1 <0>       0.2200
30 H30      -1.8416     2.0190     0.5699 H      1 <0>       0.3800
31 H31      -1.3195     1.6728    -2.5632 H      1 <0>       0.0700
32 H32      -1.7309     3.1429    -1.6345 H      1 <0>       0.0800
33 H33       0.0600     3.1460    -3.7645 H      1 <0>       0.0700
34 H34       0.1660     4.3076    -2.4012 H      1 <0>       0.0800
35 H35       3.1676     2.7725    -4.3543 H      1 <0>       0.0700
36 H36       2.1593     4.2349    -4.2435 H      1 <0>       0.0700
37 H37       4.5122     4.7269    -4.9838 H      1 <0>       0.0800
38 H38       4.0863     5.5441    -3.4574 H      1 <0>       0.0800
39 H39       6.6359     4.0913    -4.9219 H      1 <0>       0.1400
40 H40       9.0877     1.4547    -0.8166 H      1 <0>       0.1900
41 H41       5.9661     1.6534    -0.8878 H      1 <0>       0.0800
42 H42       6.5622     3.1842    -0.2312 H      1 <0>       0.0900
43 H43       5.7740     5.3013    -1.0441 H      1 <0>       0.0600
44 H44       4.0331     5.1521    -1.3840 H      1 <0>       0.0700
45 H45       4.7340     4.3469     0.0403 H      1 <0>       0.0700
46 H46       4.4099     1.5575     0.0685 H      1 <0>       0.0700
47 H47       3.6203     3.1276     0.3135 H      1 <0>       0.0800
48 H48       2.2616     0.5729    -0.6736 H      1 <0>       0.0600
49 H49       2.0764     1.3141     0.9400 H      1 <0>       0.0700
50 H50       2.2524     4.1760    -0.1569 H      1 <0>       0.0700
51 H51       0.5394     4.4381    -0.5635 H      1 <0>       0.0600
52 H52       0.9816     3.7033     0.9962 H      1 <0>       0.0600
@<TRIPOS>BOND
1    1    2 3
2    1   29 1
3    2    3 1
4    3   27 1
5    3    4 1
6    3    5 1
7    4   30 1
8    5    6 1
9    5   31 1
10    5   32 1
11    6    7 1
12    6   33 1
13    6   34 1
14    7    8 1
15    7   27 1
16    7    9 1
17    9   10 1
18    9   23 1
19    9   11 1
20   11   12 1
21   11   35 1
22   11   36 1
23   12   13 1
24   12   37 1
25   12   38 1
26   13   21 1
27   13   14 2
28   14   15 1
29   14   39 1
30   15   19 1
31   15   16 2
32   16   17 1
33   16   20 1
34   17   18 2
35   17   40 1
36   18   19 1
37   20   21 1
38   20   41 1
39   20   42 1
40   21   22 1
41   21   23 1
42   22   43 1
43   22   44 1
44   22   45 1
45   23   24 1
46   23   25 1
47   25   26 1
48   25   46 1
49   25   47 1
50   26   27 1
51   26   48 1
52   26   49 1
53   27   28 1
54   28   50 1
55   28   51 1
56   28   52 1
