@<TRIPOS>MOLECULE
ZINC000000538621
59    62    1     0     0
SMALL
USER_CHARGES
@<TRIPOS>ATOM
1      C1     -0.5871    1.5931   -0.7451 C.3      1 ZINC000000538621   -0.1500
2      C2     -0.4558    0.0694   -0.6985 C.3      1 ZINC000000538621   -0.1300
3      C3     -1.7908   -0.5447   -0.2724 C.3      1 ZINC000000538621   -0.0700
4      C4     -1.6615   -2.0454   -0.2266 C.cat    1 ZINC000000538621    0.2700
5      N5     -1.2134   -2.7348    0.7920 N.pl3    1 ZINC000000538621   -0.4700
6      H6     -0.9141   -2.3562    1.6334 H        1 ZINC000000538621    0.4500
7      C7     -1.2307   -4.0343    0.5000 C.2      1 ZINC000000538621    0.0100
8      C8     -0.7947   -5.1564    1.4065 C.3      1 ZINC000000538621    0.2200
9      C9     -1.9869   -6.0705    1.6962 C.3      1 ZINC000000538621   -0.2000
10     C10     0.3121   -5.9627    0.7239 C.3      1 ZINC000000538621   -0.1500
11     O11    -0.3015   -4.6138    2.6330 O.3      1 ZINC000000538621   -0.5600
12     C12    -1.7206   -4.1663   -0.7827 C.2      1 ZINC000000538621    0.0300
13     C13    -1.9174   -5.4110   -1.5250 C.2      1 ZINC000000538621    0.5500
14     O14    -2.2673   -5.3756   -2.6981 O.co2    1 ZINC000000538621   -0.6400
15     O15    -1.7322   -6.4887   -0.9735 O.co2    1 ZINC000000538621   -0.6200
16     N16    -1.9935   -2.8836   -1.2227 N.pl3    1 ZINC000000538621   -0.3600
17     C17    -2.5342   -2.5090   -2.5317 C.3      1 ZINC000000538621    0.1400
18     C18    -4.0395   -2.4852   -2.4654 C.ar     1 ZINC000000538621   -0.1200
19     C19    -4.7598   -3.6321   -2.7471 C.ar     1 ZINC000000538621   -0.0900
20     C20    -6.1385   -3.6162   -2.6884 C.ar     1 ZINC000000538621   -0.1000
21     C21    -6.8052   -2.4414   -2.3439 C.ar     1 ZINC000000538621   -0.0500
22     C22    -8.2861   -2.4180   -2.2786 C.ar     1 ZINC000000538621   -0.0100
23     C23    -9.0411   -2.9181   -3.3357 C.ar     1 ZINC000000538621   -0.1100
24     C24   -10.4200   -2.8943   -3.2708 C.ar     1 ZINC000000538621   -0.0900
25     C25   -11.0593   -2.3751   -2.1584 C.ar     1 ZINC000000538621   -0.1200
26     C26   -10.3251   -1.8747   -1.1014 C.ar     1 ZINC000000538621   -0.0800
27     C27    -8.9345   -1.8967   -1.1480 C.ar     1 ZINC000000538621   -0.0200
28     C28    -8.1419   -1.3603   -0.0150 C.2      1 ZINC000000538621    0.2200
29     N29    -8.6147   -0.8384    1.0998 N.2      1 ZINC000000538621   -0.2900
30     N30    -7.6107   -0.4914    1.8295 N.pl3    1 ZINC000000538621   -0.2300
31     N31    -6.5172   -0.7766    1.2131 N.2      1 ZINC000000538621   -0.0600
32     N32    -6.8049   -1.3169    0.0777 N.2      1 ZINC000000538621   -0.2500
33     C33    -6.0740   -1.2888   -2.0606 C.ar     1 ZINC000000538621   -0.0400
34     C34    -4.6955   -1.3181   -2.1174 C.ar     1 ZINC000000538621   -0.1100
35     H35     0.3640    2.0306   -1.0486 H        1 ZINC000000538621    0.0700
36     H36    -1.3596    1.8694   -1.4626 H        1 ZINC000000538621    0.0600
37     H37    -0.8591    1.9647    0.2429 H        1 ZINC000000538621    0.0600
38     H38    -0.1838   -0.3022   -1.6865 H        1 ZINC000000538621    0.0700
39     H39     0.3168   -0.2069    0.0190 H        1 ZINC000000538621    0.0700
40     H40    -2.0628   -0.1731    0.7155 H        1 ZINC000000538621    0.1100
41     H41    -2.5633   -0.2683   -0.9899 H        1 ZINC000000538621    0.1100
42     H42    -2.2961   -6.5669    0.7763 H        1 ZINC000000538621    0.1300
43     H43    -1.6997   -6.8194    2.4343 H        1 ZINC000000538621    0.0700
44     H44    -2.8144   -5.4765    2.0843 H        1 ZINC000000538621    0.0400
45     H45     1.2217   -5.3640    0.6774 H        1 ZINC000000538621    0.0500
46     H46     0.5040   -6.8715    1.2943 H        1 ZINC000000538621    0.0700
47     H47    -0.0011   -6.2269   -0.2861 H        1 ZINC000000538621    0.1200
48     H48    -0.9513   -4.0893    3.1205 H        1 ZINC000000538621    0.3700
49     H49    -2.1670   -1.5203   -2.8071 H        1 ZINC000000538621    0.1100
50     H50    -2.2149   -3.2361   -3.2783 H        1 ZINC000000538621    0.1500
51     H51    -4.2422   -4.5417   -3.0139 H        1 ZINC000000538621    0.1600
52     H52    -6.6998   -4.5120   -2.9093 H        1 ZINC000000538621    0.1300
53     H53    -8.5484   -3.3243   -4.2067 H        1 ZINC000000538621    0.1400
54     H54   -11.0031   -3.2827   -4.0927 H        1 ZINC000000538621    0.1300
55     H55   -12.1384   -2.3609   -2.1170 H        1 ZINC000000538621    0.1300
56     H56   -10.8301   -1.4705   -0.2365 H        1 ZINC000000538621    0.1400
57     H57    -7.6698   -0.0796    2.7058 H        1 ZINC000000538621    0.4800
58     H58    -6.5853   -0.3758   -1.7935 H        1 ZINC000000538621    0.1100
59     H59    -4.1280   -0.4258   -1.8978 H        1 ZINC000000538621    0.1200
@<TRIPOS>BOND
1     1     2     1
2     1     35    1
3     1     36    1
4     1     37    1
5     2     3     1
6     2     38    1
7     2     39    1
8     3     4     1
9     3     40    1
10    3     41    1
11    4     16    ar
12    4     5     ar
13    5     6     1
14    5     7     1
15    7     8     1
16    7     12    2
17    8     9     1
18    8     10    1
19    8     11    1
20    9     42    1
21    9     43    1
22    9     44    1
23    10    45    1
24    10    46    1
25    10    47    1
26    11    48    1
27    12    13    1
28    12    16    1
29    13    14    ar
30    13    15    ar
31    16    17    1
32    17    18    1
33    17    49    1
34    17    50    1
35    18    34    ar
36    18    19    ar
37    19    20    ar
38    19    51    1
39    20    21    ar
40    20    52    1
41    21    22    1
42    21    33    ar
43    22    27    ar
44    22    23    ar
45    23    24    ar
46    23    53    1
47    24    25    ar
48    24    54    1
49    25    26    ar
50    25    55    1
51    26    27    ar
52    26    56    1
53    27    28    1
54    28    32    1
55    28    29    2
56    29    30    1
57    30    31    1
58    30    57    1
59    31    32    2
60    33    34    ar
61    33    58    1
62    34    59    1
@<TRIPOS>SUBSTRUCTURE
1   ZINC000000538621 1     RESIDUE    1   A     ZIN   1
