@<TRIPOS>MOLECULE
ZINC000052957434
43    46    1     0     0
SMALL
USER_CHARGES
@<TRIPOS>ATOM
1      C1     -0.0892    1.5251   -0.1047 C.3      1 ZINC000052957434   -0.0900
2      C2     -0.0466    0.0190   -0.0793 C.2      1 ZINC000052957434   -0.1900
3      C3     -1.1149   -0.7637   -0.0563 C.2      1 ZINC000052957434   -0.1200
4      C4     -0.7974   -2.1758   -0.0287 C.2      1 ZINC000052957434   -0.2000
5      C5      0.5622   -2.4051   -0.0757 C.2      1 ZINC000052957434    0.1000
6      N6      1.1231   -3.6870   -0.1327 N.pl3    1 ZINC000052957434   -0.6800
7      C7      0.6919   -4.5305   -1.1764 C.ar     1 ZINC000052957434    0.1100
8      C8      1.6330   -5.0442   -2.0502 C.ar     1 ZINC000052957434   -0.1200
9      C9      1.2413   -5.8543   -3.1043 C.ar     1 ZINC000052957434   -0.1100
10     C10    -0.0954   -6.1498   -3.2856 C.ar     1 ZINC000052957434   -0.1100
11     C11    -1.0437   -5.6518   -2.4140 C.ar     1 ZINC000052957434   -0.1000
12     C12    -0.6632   -4.8428   -1.3371 C.ar     1 ZINC000052957434    0.1400
13     N13    -1.6323   -4.4311   -0.4742 N.2      1 ZINC000052957434   -0.5900
14     C14    -1.7793   -3.2756    0.0843 C.2      1 ZINC000052957434    0.5200
15     N15    -2.9164   -3.0553    0.8282 N.pl3    1 ZINC000052957434   -0.6100
16     C16    -3.9971   -4.0525    0.8713 C.3      1 ZINC000052957434    0.1000
17     C17    -4.3531   -4.3198    2.3375 C.3      1 ZINC000052957434   -0.0200
18     N18    -4.6733   -3.0500    3.0017 N.4      1 ZINC000052957434   -0.3900
19     H19    -5.4109   -2.5836    2.4953 H        1 ZINC000052957434    0.4200
20     C20    -5.1182   -3.3170    4.3760 C.3      1 ZINC000052957434   -0.0500
21     C21    -3.4843   -2.1890    3.0346 C.3      1 ZINC000052957434   -0.0200
22     C22    -3.0827   -1.8187    1.6074 C.3      1 ZINC000052957434    0.0900
23     S23     1.4242   -0.9364   -0.0837 S.3      1 ZINC000052957434    0.1900
24     H24     0.9277    1.9171   -0.1255 H        1 ZINC000052957434    0.0700
25     H25    -0.6254    1.8585   -0.9932 H        1 ZINC000052957434    0.0800
26     H26    -0.6008    1.8892    0.7863 H        1 ZINC000052957434    0.0800
27     H27    -2.1262   -0.3846   -0.0576 H        1 ZINC000052957434    0.1500
28     H28     1.7800   -3.9815    0.5175 H        1 ZINC000052957434    0.4200
29     H29     2.6786   -4.8125   -1.9105 H        1 ZINC000052957434    0.1300
30     H30     1.9805   -6.2542   -3.7826 H        1 ZINC000052957434    0.1300
31     H31    -0.4006   -6.7729   -4.1132 H        1 ZINC000052957434    0.1300
32     H32    -2.0867   -5.8880   -2.5647 H        1 ZINC000052957434    0.1300
33     H33    -4.8715   -3.6680    0.3463 H        1 ZINC000052957434    0.0900
34     H34    -3.6613   -4.9770    0.4015 H        1 ZINC000052957434    0.1400
35     H35    -5.2163   -4.9835    2.3867 H        1 ZINC000052957434    0.1400
36     H36    -3.5054   -4.7881    2.8378 H        1 ZINC000052957434    0.1300
37     H37    -4.3234   -3.8238    4.9233 H        1 ZINC000052957434    0.1200
38     H38    -5.3563   -2.3751    4.8703 H        1 ZINC000052957434    0.1300
39     H39    -6.0052   -3.9502    4.3542 H        1 ZINC000052957434    0.1300
40     H40    -3.7073   -1.2827    3.5975 H        1 ZINC000052957434    0.1400
41     H41    -2.6629   -2.7218    3.5138 H        1 ZINC000052957434    0.1300
42     H42    -2.1441   -1.2648    1.6231 H        1 ZINC000052957434    0.1400
43     H43    -3.8639   -1.2087    1.1538 H        1 ZINC000052957434    0.0900
@<TRIPOS>BOND
1     1     2     1
2     1     24    1
3     1     25    1
4     1     26    1
5     2     23    1
6     2     3     2
7     3     4     1
8     3     27    1
9     4     14    1
10    4     5     2
11    5     6     1
12    5     23    1
13    6     7     1
14    6     28    1
15    7     12    ar
16    7     8     ar
17    8     9     ar
18    8     29    1
19    9     10    ar
20    9     30    1
21    10    11    ar
22    10    31    1
23    11    12    ar
24    11    32    1
25    12    13    1
26    13    14    2
27    14    15    1
28    15    22    1
29    15    16    1
30    16    17    1
31    16    33    1
32    16    34    1
33    17    18    1
34    17    35    1
35    17    36    1
36    18    19    1
37    18    20    1
38    18    21    1
39    20    37    1
40    20    38    1
41    20    39    1
42    21    22    1
43    21    40    1
44    21    41    1
45    22    42    1
46    22    43    1
@<TRIPOS>SUBSTRUCTURE
1   ZINC000052957434 1     RESIDUE    1   A     ZIN   1
