@<TRIPOS>MOLECULE
ZINC000043194409
52    53    1     0     0
SMALL
USER_CHARGES
@<TRIPOS>ATOM
1      C1     -0.0178    1.4608    0.0101 C.3      1 ZINC000043194409    0.0900
2      N2      0.0021   -0.0041    0.0020 N.pl3    1 ZINC000043194409   -0.7500
3      C3     -1.1966   -0.7181    0.0096 C.ar     1 ZINC000043194409    0.2200
4      C4     -2.4094   -0.0373    0.0191 C.ar     1 ZINC000043194409   -0.2000
5      C5     -3.5950   -0.7386    0.0266 C.ar     1 ZINC000043194409   -0.0600
6      C6     -3.5780   -2.1365    0.0243 C.ar     1 ZINC000043194409   -0.1200
7      C7     -4.8437   -2.8904    0.0318 C.2      1 ZINC000043194409   -0.1000
8      C8     -4.8255   -4.2334    0.0296 C.2      1 ZINC000043194409   -0.1200
9      C9     -6.0913   -4.9874    0.0371 C.ar     1 ZINC000043194409   -0.0900
10     C10    -7.3125   -4.3073    0.0409 C.ar     1 ZINC000043194409   -0.0800
11     C11    -8.4938   -5.0169    0.0480 C.ar     1 ZINC000043194409   -0.1500
12     C12    -8.4723   -6.4056    0.0514 C.ar     1 ZINC000043194409    0.1300
13     O13    -9.6396   -7.1009    0.0580 O.3      1 ZINC000043194409   -0.3100
14     C14    -9.5454   -8.5268    0.0613 C.3      1 ZINC000043194409    0.0600
15     C15   -10.9511   -9.1308    0.0686 C.3      1 ZINC000043194409    0.0600
16     O16   -11.6185   -8.7988   -1.1506 O.3      1 ZINC000043194409   -0.3700
17     C17   -12.9466   -9.3176   -1.2461 C.3      1 ZINC000043194409    0.0600
18     C18   -13.5612   -8.9027   -2.5845 C.3      1 ZINC000043194409    0.0600
19     O19   -12.8373   -9.5178   -3.6521 O.3      1 ZINC000043194409   -0.3800
20     C20   -13.3329   -9.1939   -4.9527 C.3      1 ZINC000043194409    0.0300
21     C21   -12.4872   -9.9036   -6.0120 C.3      1 ZINC000043194409    0.0700
22     F22   -12.6498  -11.2876   -5.8881 F        1 ZINC000043194409   -0.2100
23     C23    -7.2614   -7.0859    0.0478 C.ar     1 ZINC000043194409   -0.2100
24     C24    -6.0749   -6.3852    0.0348 C.ar     1 ZINC000043194409   -0.0700
25     C25    -2.3569   -2.8172    0.0143 C.ar     1 ZINC000043194409   -0.0600
26     C26    -1.1757   -2.1087    0.0020 C.ar     1 ZINC000043194409   -0.2000
27     H27     1.0048    1.8381    0.0023 H        1 ZINC000043194409    0.0700
28     H28    -0.5450    1.8219   -0.8730 H        1 ZINC000043194409    0.0500
29     H29    -0.5280    1.8123    0.9069 H        1 ZINC000043194409    0.0500
30     H30     0.8486   -0.4776   -0.0086 H        1 ZINC000043194409    0.4000
31     H31    -2.4216    1.0427    0.0208 H        1 ZINC000043194409    0.1200
32     H32    -4.5363   -0.2092    0.0346 H        1 ZINC000043194409    0.1200
33     H33    -5.7862   -2.3632    0.0392 H        1 ZINC000043194409    0.1200
34     H34    -3.8829   -4.7607    0.0223 H        1 ZINC000043194409    0.1200
35     H35    -7.3302   -3.2275    0.0385 H        1 ZINC000043194409    0.1300
36     H36    -9.4378   -4.4923    0.0512 H        1 ZINC000043194409    0.1300
37     H37    -9.0124   -8.8578   -0.8301 H        1 ZINC000043194409    0.0700
38     H38    -9.0051   -8.8532    0.9499 H        1 ZINC000043194409    0.0800
39     H39   -10.8805  -10.2146    0.1606 H        1 ZINC000043194409    0.0700
40     H40   -11.5142   -8.7305    0.9117 H        1 ZINC000043194409    0.0600
41     H41   -12.9173  -10.4052   -1.1814 H        1 ZINC000043194409    0.0600
42     H42   -13.5511   -8.9211   -0.4303 H        1 ZINC000043194409    0.0700
43     H43   -14.6028   -9.2219   -2.6205 H        1 ZINC000043194409    0.0700
44     H44   -13.5095   -7.8188   -2.6876 H        1 ZINC000043194409    0.0600
45     H45   -14.3698   -9.5191   -5.0378 H        1 ZINC000043194409    0.0600
46     H46   -13.2765   -8.1161   -5.1049 H        1 ZINC000043194409    0.0700
47     H47   -12.8080   -9.5875   -7.0046 H        1 ZINC000043194409    0.0900
48     H48   -11.4374   -9.6469   -5.8705 H        1 ZINC000043194409    0.0800
49     H49    -7.2497   -8.1659    0.0509 H        1 ZINC000043194409    0.1300
50     H50    -5.1338   -6.9150    0.0316 H        1 ZINC000043194409    0.1300
51     H51    -2.3398   -3.8971    0.0126 H        1 ZINC000043194409    0.1200
52     H52    -0.2319   -2.6338   -0.0057 H        1 ZINC000043194409    0.1200
@<TRIPOS>BOND
1     1     2     1
2     1     27    1
3     1     28    1
4     1     29    1
5     2     3     1
6     2     30    1
7     3     26    ar
8     3     4     ar
9     4     5     ar
10    4     31    1
11    5     6     ar
12    5     32    1
13    6     7     1
14    6     25    ar
15    7     8     2
16    7     33    1
17    8     9     1
18    8     34    1
19    9     24    ar
20    9     10    ar
21    10    11    ar
22    10    35    1
23    11    12    ar
24    11    36    1
25    12    13    1
26    12    23    ar
27    13    14    1
28    14    15    1
29    14    37    1
30    14    38    1
31    15    16    1
32    15    39    1
33    15    40    1
34    16    17    1
35    17    18    1
36    17    41    1
37    17    42    1
38    18    19    1
39    18    43    1
40    18    44    1
41    19    20    1
42    20    21    1
43    20    45    1
44    20    46    1
45    21    22    1
46    21    47    1
47    21    48    1
48    23    24    ar
49    23    49    1
50    24    50    1
51    25    26    ar
52    25    51    1
53    26    52    1
@<TRIPOS>SUBSTRUCTURE
1   ZINC000043194409 1     RESIDUE    1   A     ZIN   1
