@<TRIPOS>MOLECULE
ZINC000000049154
23   23    0    0    0
SMALL
USER_CHARGES
NO_NAME
@<TRIPOS>ATOM
1 C1       -0.0184     1.5028     0.0103 C.3    1 <0>      -0.1000
2 C2        0.0021    -0.0041     0.0020 C.ar   1 <0>       0.1100
3 N3        0.0055    -0.6500    -1.1470 N.ar   1 <0>      -0.4600
4 C4        0.0235    -1.9675    -1.2031 C.ar   1 <0>       0.1200
5 C5        0.0397    -2.7266    -0.0482 C.ar   1 <0>      -0.1200
6 C6        0.0608    -4.2315    -0.1255 C.3    1 <0>       0.1200
7 O7        0.0602    -4.6382    -1.4954 O.3    1 <0>      -0.5700
8 C8        0.0368    -2.0878     1.1815 C.ar   1 <0>      -0.0700
9 C9        0.0546    -2.8803     2.4632 C.3    1 <0>       0.1200
10 O10       1.4074    -3.1116     2.8615 O.3    1 <0>      -0.5700
11 C11       0.0229    -0.6970     1.2039 C.ar   1 <0>       0.0700
12 O12       0.0195    -0.0267     2.3862 O.3    1 <0>      -0.4900
13 H13       1.0042     1.8801     0.0026 H      1 <0>       0.0800
14 H14      -0.5455     1.8639    -0.8728 H      1 <0>       0.0800
15 H15      -0.5286     1.8543     0.9071 H      1 <0>       0.0800
16 H16       0.0254    -2.4598    -2.1643 H      1 <0>       0.1700
17 H17       0.9585    -4.6079     0.3649 H      1 <0>       0.0700
18 H18      -0.8212    -4.6333     0.3732 H      1 <0>       0.0600
19 H19       0.0733    -5.5969    -1.6210 H      1 <0>       0.3900
20 H20      -0.4633    -2.3218     3.2429 H      1 <0>       0.0700
21 H21      -0.4464    -3.8356     2.3066 H      1 <0>       0.0600
22 H22       1.4951    -3.6174     3.6809 H      1 <0>       0.3900
23 H23       0.9019     0.1762     2.7258 H      1 <0>       0.4000
@<TRIPOS>BOND
1    1    2 1
2    1   13 1
3    1   14 1
4    1   15 1
5    2   11 ar
6    2    3 ar
7    3    4 ar
8    4    5 ar
9    4   16 1
10    5    6 1
11    5    8 ar
12    6    7 1
13    6   17 1
14    6   18 1
15    7   19 1
16    8    9 1
17    8   11 ar
18    9   10 1
19    9   20 1
20    9   21 1
21   10   22 1
22   11   12 1
23   12   23 1
