@<TRIPOS>MOLECULE
ZINC000004468778
43   45    0    0    0
SMALL
USER_CHARGES
NO_NAME
@<TRIPOS>ATOM
1 C1       -0.1778     1.0515     0.1541 C.2    1 <0>      -0.2500
2 C2       -0.1158    -0.2819     0.1164 C.2    1 <0>      -0.0500
3 C3        1.1822    -0.9522     0.0776 C.2    1 <0>      -0.2100
4 C4        1.1598    -2.2997     0.1500 C.2    1 <0>       0.1700
5 C5       -0.1100    -3.0023     0.3415 C.2    1 <0>       0.5300
6 O6       -0.7250    -3.4307    -0.6273 O.co2  1 <0>      -0.6600
7 O7       -0.5576    -3.1618     1.4704 O.co2  1 <0>      -0.6700
8 N8        2.3519    -3.0242     0.0415 N.am   1 <0>      -0.5500
9 C9        2.8382    -4.2098    -0.3047 C.2    1 <0>       0.5200
10 O10       2.3221    -5.3027    -0.4067 O.2    1 <0>      -0.4500
11 C11       4.2541    -3.7327    -0.5283 C.3    1 <0>       0.1400
12 H12       5.0115    -4.2999     0.0127 H      1 <0>       0.1500
13 N13       4.5979    -3.4930    -1.9321 N.am   1 <0>      -0.6900
14 C14       5.2858    -4.4217    -2.6255 C.2    1 <0>       0.5300
15 O15       5.6996    -5.4164    -2.0635 O.2    1 <0>      -0.4800
16 C16       5.5377    -4.2296    -4.0731 C.2    1 <0>       0.1500
17 N17       6.0990    -5.1780    -4.7681 N.2    1 <0>      -0.2800
18 O18       6.3676    -6.4318    -4.1675 O.3    1 <0>      -0.1300
19 C19       7.0849    -7.3375    -5.0085 C.3    1 <0>      -0.0100
20 C20       7.2076    -8.6723    -4.3200 C.2    1 <0>       0.5000
21 O21       6.6480    -8.8619    -3.2535 O.co2  1 <0>      -0.6600
22 O22       7.8664    -9.5628    -4.8295 O.co2  1 <0>      -0.6900
23 C23       5.1521    -2.9616    -4.7288 C.2    1 <0>       0.1600
24 C24       5.2499    -2.7781    -6.0602 C.2    1 <0>      -0.2300
25 S25       4.6955    -1.1484    -6.4356 S.3    1 <0>       0.0600
26 C26       4.3766    -0.8592    -4.7284 C.2    1 <0>       0.3700
27 N27       3.8765     0.3178    -4.1972 N.pl3  1 <0>      -0.8100
28 N28       4.6772    -1.9194    -4.0458 N.2    1 <0>      -0.5300
29 C29       3.7389    -2.5099     0.2103 C.3    1 <0>       0.1200
30 H30       4.0742    -2.4324     1.2445 H      1 <0>       0.1400
31 S31       3.8402    -0.9392    -0.7111 S.3    1 <0>      -0.2400
32 C32       2.3791    -0.0664    -0.0435 C.3    1 <0>      -0.0100
33 H33       0.7313     1.6345     0.1558 H      1 <0>       0.0900
34 H34      -1.1372     1.5469     0.1782 H      1 <0>       0.0900
35 H35      -1.0249    -0.8649     0.1146 H      1 <0>       0.1200
36 H36       4.3303    -2.6660    -2.3626 H      1 <0>       0.4300
37 H37       6.5486    -7.4618    -5.9493 H      1 <0>       0.0600
38 H38       8.0795    -6.9384    -5.2073 H      1 <0>       0.0500
39 H39       5.6073    -3.5050    -6.7745 H      1 <0>       0.1900
40 H40       3.6737     1.0656    -4.7808 H      1 <0>       0.4100
41 H41       3.7291     0.3945    -3.2416 H      1 <0>       0.4200
42 H42       2.1448     0.7782    -0.6915 H      1 <0>       0.1100
43 H43       2.6154     0.3087     0.9522 H      1 <0>       0.0900
@<TRIPOS>BOND
1    1    2 2
2    1   33 1
3    1   34 1
4    2    3 1
5    2   35 1
6    3   32 1
7    3    4 2
8    4    5 1
9    4    8 1
10    5    6 ar
11    5    7 ar
12    8   29 1
13    8    9 am
14    9   10 2
15    9   11 1
16   11   12 1
17   11   13 1
18   11   29 1
19   13   14 am
20   13   36 1
21   14   15 2
22   14   16 1
23   16   17 2
24   16   23 1
25   17   18 1
26   18   19 1
27   19   20 1
28   19   37 1
29   19   38 1
30   20   21 ar
31   20   22 ar
32   23   28 1
33   23   24 2
34   24   25 1
35   24   39 1
36   25   26 1
37   26   27 1
38   26   28 2
39   27   40 1
40   27   41 1
41   29   30 1
42   29   31 1
43   31   32 1
44   32   42 1
45   32   43 1
