@<TRIPOS>MOLECULE
ZINC000003976838
59    62    1     0     0
SMALL
USER_CHARGES
@<TRIPOS>ATOM
1      C1      0.5515    0.8315   -1.7851 C.3      1 ZINC000003976838    0.0200
2      N2      0.2285   -0.5996   -1.7097 N.3      1 ZINC000003976838   -0.5400
3      C3      1.3525   -1.3644   -1.1533 C.3      1 ZINC000003976838    0.0200
4      C4     -0.9968   -0.8224   -0.9306 C.3      1 ZINC000003976838    0.0700
5      C5     -1.4318   -2.2577   -1.0780 C.2      1 ZINC000003976838   -0.0300
6      C6     -1.6205   -3.0098    0.0027 C.2      1 ZINC000003976838   -0.2200
7      C7     -2.0450   -4.4105   -0.1412 C.2      1 ZINC000003976838    0.5500
8      O8     -2.2236   -4.8812   -1.2484 O.2      1 ZINC000003976838   -0.5300
9      N9     -2.2362   -5.1726    0.9539 N.am     1 ZINC000003976838   -0.6600
10     C10    -2.7324   -6.4749    0.8224 C.ar     1 ZINC000003976838    0.1200
11     C11    -3.5496   -7.0132    1.8285 C.ar     1 ZINC000003976838    0.1600
12     O12    -3.8511   -6.2650    2.9213 O.3      1 ZINC000003976838   -0.2900
13     C13    -4.5928   -6.9053    3.9615 C.3      1 ZINC000003976838    0.0500
14     H14    -4.2871   -7.9460    4.0694 H        1 ZINC000003976838    0.1000
15     C15    -4.4349   -6.1408    5.3041 C.3      1 ZINC000003976838   -0.1500
16     C16    -5.7692   -6.4993    6.0054 C.3      1 ZINC000003976838    0.0500
17     O17    -6.7482   -6.5321    4.9547 O.3      1 ZINC000003976838   -0.3700
18     C18    -6.1103   -6.8030    3.6971 C.3      1 ZINC000003976838    0.0300
19     C19    -4.0493   -8.2914    1.7192 C.ar     1 ZINC000003976838   -0.2000
20     C20    -3.7390   -9.0633    0.5931 C.ar     1 ZINC000003976838    0.2200
21     N21    -4.2040  -10.3138    0.4437 N.ar     1 ZINC000003976838   -0.5500
22     C22    -3.8978  -11.0147   -0.6220 C.ar     1 ZINC000003976838    0.3500
23     N23    -3.1309  -10.5483   -1.5946 N.ar     1 ZINC000003976838   -0.5900
24     C24    -2.6190   -9.3253   -1.5476 C.ar     1 ZINC000003976838    0.4800
25     N25    -1.8210   -8.8514   -2.5692 N.pl3    1 ZINC000003976838   -0.6300
26     C26    -1.6369   -9.6171   -3.7255 C.ar     1 ZINC000003976838    0.1600
27     C27    -2.6440  -10.4662   -4.1647 C.ar     1 ZINC000003976838   -0.0800
28     C28    -2.4609  -11.2213   -5.3070 C.ar     1 ZINC000003976838   -0.1200
29     C29    -1.2743  -11.1322   -6.0142 C.ar     1 ZINC000003976838    0.0900
30     F30    -1.0974  -11.8716   -7.1310 F        1 ZINC000003976838   -0.1300
31     C31    -0.2675  -10.2851   -5.5783 C.ar     1 ZINC000003976838   -0.0500
32     Cl32    1.2192  -10.1746   -6.4679 Cl       1 ZINC000003976838   -0.0400
33     C33    -0.4487   -9.5246   -4.4389 C.ar     1 ZINC000003976838   -0.1100
34     C34    -2.9134   -8.5191   -0.4220 C.ar     1 ZINC000003976838   -0.2000
35     C35    -2.4192   -7.2156   -0.2963 C.ar     1 ZINC000003976838   -0.0500
36     H36     1.4628    0.9681   -2.3673 H        1 ZINC000003976838    0.0700
37     H37    -0.2695    1.3644   -2.2648 H        1 ZINC000003976838    0.0700
38     H38     0.7008    1.2237   -0.7791 H        1 ZINC000003976838    0.0300
39     H39     1.5762   -1.0032   -0.1495 H        1 ZINC000003976838    0.0300
40     H40     1.0867   -2.4205   -1.1086 H        1 ZINC000003976838    0.0700
41     H41     2.2288   -1.2369   -1.7889 H        1 ZINC000003976838    0.0700
42     H42    -0.8032   -0.6075    0.1204 H        1 ZINC000003976838    0.0500
43     H43    -1.7849   -0.1644   -1.2967 H        1 ZINC000003976838    0.1000
44     H44    -1.5904   -2.6756   -2.0612 H        1 ZINC000003976838    0.1400
45     H45    -1.4619   -2.5919    0.9859 H        1 ZINC000003976838    0.1300
46     H46    -2.0299   -4.8187    1.8331 H        1 ZINC000003976838    0.4200
47     H47    -3.5811   -6.5132    5.8702 H        1 ZINC000003976838    0.1000
48     H48    -4.3549   -5.0665    5.1374 H        1 ZINC000003976838    0.0900
49     H49    -5.6947   -7.4759    6.4837 H        1 ZINC000003976838    0.0700
50     H50    -6.0276   -5.7363    6.7396 H        1 ZINC000003976838    0.1000
51     H51    -6.3075   -5.9890    2.9996 H        1 ZINC000003976838    0.0800
52     H52    -6.4843   -7.7413    3.2875 H        1 ZINC000003976838    0.0800
53     H53    -4.6773   -8.6968    2.4987 H        1 ZINC000003976838    0.1500
54     H54    -4.2889  -12.0176   -0.7095 H        1 ZINC000003976838    0.2000
55     H55    -1.3879   -7.9876   -2.4855 H        1 ZINC000003976838    0.4300
56     H56    -3.5700  -10.5366   -3.6134 H        1 ZINC000003976838    0.1600
57     H57    -3.2441  -11.8820   -5.6484 H        1 ZINC000003976838    0.1500
58     H58     0.3357   -8.8645   -4.0991 H        1 ZINC000003976838    0.1500
59     H59    -1.7940   -6.7944   -1.0696 H        1 ZINC000003976838    0.1600
@<TRIPOS>BOND
1     1     2     1
2     1     36    1
3     1     37    1
4     1     38    1
5     2     3     1
6     2     4     1
7     3     39    1
8     3     40    1
9     3     41    1
10    4     5     1
11    4     42    1
12    4     43    1
13    5     6     2
14    5     44    1
15    6     7     1
16    6     45    1
17    7     8     2
18    7     9     am
19    9     10    1
20    9     46    1
21    10    35    ar
22    10    11    ar
23    11    12    1
24    11    19    ar
25    12    13    1
26    13    14    1
27    13    18    1
28    13    15    1
29    15    16    1
30    15    47    1
31    15    48    1
32    16    17    1
33    16    49    1
34    16    50    1
35    17    18    1
36    18    51    1
37    18    52    1
38    19    20    ar
39    19    53    1
40    20    34    ar
41    20    21    ar
42    21    22    ar
43    22    23    ar
44    22    54    1
45    23    24    ar
46    24    25    1
47    24    34    ar
48    25    26    1
49    25    55    1
50    26    33    ar
51    26    27    ar
52    27    28    ar
53    27    56    1
54    28    29    ar
55    28    57    1
56    29    30    1
57    29    31    ar
58    31    32    1
59    31    33    ar
60    33    58    1
61    34    35    ar
62    35    59    1
@<TRIPOS>SUBSTRUCTURE
1   ZINC000003976838 1     RESIDUE    1   A     ZIN   1
