@<TRIPOS>MOLECULE
ZINC000043207238
56    59    1     0     0
SMALL
USER_CHARGES
@<TRIPOS>ATOM
1      C1     -0.0184    1.5028    0.0103 C.3      1 ZINC000043207238   -0.1200
2      C2      0.0021   -0.0041    0.0020 C.ar     1 ZINC000043207238   -0.0700
3      C3      0.0057   -0.6885   -1.1987 C.ar     1 ZINC000043207238   -0.1200
4      C4      0.0245   -2.0710   -1.2063 C.ar     1 ZINC000043207238   -0.0900
5      C5      0.0400   -2.7685   -0.0132 C.ar     1 ZINC000043207238   -0.0800
6      C6      0.0600   -4.2753   -0.0215 C.3      1 ZINC000043207238    0.1400
7      H7      0.4214   -4.6394    0.9403 H        1 ZINC000043207238    0.0800
8      O8      0.9262   -4.7347   -1.0610 O.3      1 ZINC000043207238   -0.3400
9      C9      1.0385   -6.1571   -1.1409 C.3      1 ZINC000043207238    0.1000
10     H10     1.4126   -6.5459   -0.1938 H        1 ZINC000043207238    0.0800
11     C11     2.0080   -6.5301   -2.2642 C.3      1 ZINC000043207238    0.0900
12     O12     3.3189   -6.0653   -1.9360 O.3      1 ZINC000043207238   -0.5700
13     C13    -0.3378   -6.7607   -1.4326 C.3      1 ZINC000043207238    0.0500
14     H14    -0.6947   -6.4037   -2.3987 H        1 ZINC000043207238    0.0800
15     O15    -0.2387   -8.1860   -1.4571 O.3      1 ZINC000043207238   -0.5500
16     C16    -1.3172   -6.3331   -0.3352 C.3      1 ZINC000043207238    0.0400
17     H17    -0.9869   -6.7319    0.6239 H        1 ZINC000043207238    0.0800
18     O18    -2.6214   -6.8330   -0.6372 O.3      1 ZINC000043207238   -0.5600
19     C19    -1.3557   -4.8033   -0.2680 C.3      1 ZINC000043207238    0.1000
20     H20    -1.7332   -4.4066   -1.2104 H        1 ZINC000043207238    0.0700
21     O21    -2.2125   -4.3936    0.7999 O.3      1 ZINC000043207238   -0.5500
22     C22     0.0378   -2.0838    1.1879 C.ar     1 ZINC000043207238   -0.0800
23     C23     0.0229   -0.7017    1.1955 C.ar     1 ZINC000043207238   -0.0800
24     C24     0.0204    0.0446    2.5047 C.3      1 ZINC000043207238   -0.0100
25     C25    -1.3971    0.3857    2.8858 C.2      1 ZINC000043207238   -0.1600
26     C26    -2.2010   -0.3846    3.6241 C.2      1 ZINC000043207238   -0.1300
27     C27    -3.4610    0.1315    3.8485 C.2      1 ZINC000043207238   -0.1200
28     C28    -3.6847    1.3357    3.2861 C.2      1 ZINC000043207238   -0.1600
29     C29    -4.9471    2.0997    3.3782 C.ar     1 ZINC000043207238   -0.0200
30     C30    -6.0268    1.5842    4.0968 C.ar     1 ZINC000043207238   -0.0800
31     C31    -7.2021    2.3013    4.1799 C.ar     1 ZINC000043207238   -0.1500
32     C32    -7.3121    3.5314    3.5515 C.ar     1 ZINC000043207238    0.1000
33     F33    -8.4654    4.2299    3.6364 F        1 ZINC000043207238   -0.1400
34     C34    -6.2432    4.0479    2.8367 C.ar     1 ZINC000043207238   -0.1500
35     C35    -5.0615    3.3416    2.7516 C.ar     1 ZINC000043207238   -0.0900
36     S36    -2.2396    1.8611    2.4320 S.3      1 ZINC000043207238    0.1300
37     H37     1.0042    1.8801    0.0026 H        1 ZINC000043207238    0.0800
38     H38    -0.5455    1.8639   -0.8728 H        1 ZINC000043207238    0.0700
39     H39    -0.5286    1.8543    0.9071 H        1 ZINC000043207238    0.0600
40     H40    -0.0064   -0.1435   -2.1310 H        1 ZINC000043207238    0.1200
41     H41     0.0266   -2.6058   -2.1446 H        1 ZINC000043207238    0.1200
42     H42     2.0260   -7.6134   -2.3839 H        1 ZINC000043207238    0.0700
43     H43     1.6809   -6.0671   -3.1952 H        1 ZINC000043207238    0.0500
44     H44     3.9869   -6.2674   -2.6053 H        1 ZINC000043207238    0.3800
45     H45    -1.0758   -8.6354   -1.6371 H        1 ZINC000043207238    0.3800
46     H46    -2.6682   -7.7968   -0.7008 H        1 ZINC000043207238    0.3800
47     H47    -3.1260   -4.6979    0.7100 H        1 ZINC000043207238    0.3900
48     H48     0.0503   -2.6288    2.1202 H        1 ZINC000043207238    0.1200
49     H49     0.4648   -0.5798    3.2797 H        1 ZINC000043207238    0.0900
50     H50     0.5996    0.9622    2.4009 H        1 ZINC000043207238    0.0900
51     H51    -1.8879   -1.3410    4.0162 H        1 ZINC000043207238    0.1400
52     H52    -4.2088   -0.3887    4.4286 H        1 ZINC000043207238    0.1400
53     H53    -5.9423    0.6254    4.5867 H        1 ZINC000043207238    0.1400
54     H54    -8.0383    1.9031    4.7354 H        1 ZINC000043207238    0.1400
55     H55    -6.3342    5.0071    2.3488 H        1 ZINC000043207238    0.1400
56     H56    -4.2290    3.7450    2.1942 H        1 ZINC000043207238    0.1300
@<TRIPOS>BOND
1     1     2     1
2     1     37    1
3     1     38    1
4     1     39    1
5     2     23    ar
6     2     3     ar
7     3     4     ar
8     3     40    1
9     4     5     ar
10    4     41    1
11    5     6     1
12    5     22    ar
13    6     7     1
14    6     19    1
15    6     8     1
16    8     9     1
17    9     10    1
18    9     11    1
19    9     13    1
20    11    12    1
21    11    42    1
22    11    43    1
23    12    44    1
24    13    14    1
25    13    15    1
26    13    16    1
27    15    45    1
28    16    17    1
29    16    18    1
30    16    19    1
31    18    46    1
32    19    20    1
33    19    21    1
34    21    47    1
35    22    23    ar
36    22    48    1
37    23    24    1
38    24    25    1
39    24    49    1
40    24    50    1
41    25    36    1
42    25    26    2
43    26    27    1
44    26    51    1
45    27    28    2
46    27    52    1
47    28    29    1
48    28    36    1
49    29    35    ar
50    29    30    ar
51    30    31    ar
52    30    53    1
53    31    32    ar
54    31    54    1
55    32    33    1
56    32    34    ar
57    34    35    ar
58    34    55    1
59    35    56    1
@<TRIPOS>SUBSTRUCTURE
1   ZINC000043207238 1     RESIDUE    1   A     ZIN   1
