@<TRIPOS>MOLECULE
ZINC000003784182
58    63    1     0     0
SMALL
USER_CHARGES
@<TRIPOS>ATOM
1      C1     -0.0173    1.4248    0.0099 C.3      1 ZINC000003784182    0.0200
2      O2      0.0021   -0.0041    0.0020 O.3      1 ZINC000003784182   -0.3100
3      C3      0.6056   -0.6069   -1.0553 C.ar     1 ZINC000003784182    0.1300
4      C4      1.1723    0.1640   -2.0614 C.ar     1 ZINC000003784182   -0.2000
5      C5      1.7852   -0.4449   -3.1362 C.ar     1 ZINC000003784182   -0.0800
6      C6      1.8358   -1.8361   -3.2117 C.ar     1 ZINC000003784182   -0.0600
7      C7      2.4944   -2.4940   -4.3656 C.ar     1 ZINC000003784182   -0.0500
8      C8      2.5360   -3.8959   -4.4368 C.ar     1 ZINC000003784182   -0.1200
9      C9      3.1329   -4.5221   -5.4836 C.ar     1 ZINC000003784182   -0.0900
10     C10     3.7200   -3.7646   -6.5148 C.ar     1 ZINC000003784182   -0.0600
11     C11     4.3406   -4.3913   -7.6044 C.ar     1 ZINC000003784182   -0.0800
12     C12     4.9096   -3.6165   -8.6046 C.ar     1 ZINC000003784182   -0.1300
13     C13     5.5632   -4.2693   -9.7530 C.2      1 ZINC000003784182    0.5200
14     O14     5.6025   -5.4899   -9.8217 O.co2    1 ZINC000003784182   -0.6900
15     O15     6.0664   -3.5905  -10.6374 O.co2    1 ZINC000003784182   -0.6900
16     C16     4.8670   -2.2110   -8.5310 C.ar     1 ZINC000003784182   -0.0700
17     C17     4.2709   -1.5881   -7.4838 C.ar     1 ZINC000003784182   -0.1400
18     C18     3.6838   -2.3472   -6.4527 C.ar     1 ZINC000003784182   -0.0500
19     C19     3.0578   -1.7214   -5.3656 C.ar     1 ZINC000003784182   -0.1000
20     C20     1.2660   -2.6077   -2.1992 C.ar     1 ZINC000003784182   -0.0800
21     C21     0.6593   -1.9929   -1.1248 C.ar     1 ZINC000003784182   -0.1000
22     C22     0.0437   -2.8258   -0.0301 C.3      1 ZINC000003784182    0.0000
23     C23    -1.4494   -2.5085    0.0738 C.3      1 ZINC000003784182   -0.1000
24     C24    -2.0744   -3.3541    1.1852 C.3      1 ZINC000003784182   -0.0800
25     C25    -1.3909   -3.0330    2.5159 C.3      1 ZINC000003784182   -0.1100
26     C26     0.1022   -3.3503    2.4120 C.3      1 ZINC000003784182   -0.0800
27     C27     0.2869   -4.8343    2.0889 C.3      1 ZINC000003784182   -0.1100
28     C28    -0.3965   -5.1555    0.7582 C.3      1 ZINC000003784182   -0.0900
29     C29    -1.8896   -4.8382    0.8621 C.3      1 ZINC000003784182   -0.1100
30     C30     0.2285   -4.3098   -0.3532 C.3      1 ZINC000003784182   -0.1100
31     C31     0.7271   -2.5047    1.3006 C.3      1 ZINC000003784182   -0.1000
32     H32     1.0053    1.8021    0.0021 H        1 ZINC000003784182    0.0500
33     H33    -0.5445    1.7859   -0.8732 H        1 ZINC000003784182    0.0500
34     H34    -0.5275    1.7763    0.9067 H        1 ZINC000003784182    0.1000
35     H35     1.1328    1.2416   -2.0023 H        1 ZINC000003784182    0.1300
36     H36     2.2253    0.1553   -3.9188 H        1 ZINC000003784182    0.1300
37     H37     2.0879   -4.4833   -3.6491 H        1 ZINC000003784182    0.1200
38     H38     3.1574   -5.6010   -5.5248 H        1 ZINC000003784182    0.1300
39     H39     4.3759   -5.4691   -7.6646 H        1 ZINC000003784182    0.1300
40     H40     5.3146   -1.6218   -9.3176 H        1 ZINC000003784182    0.1300
41     H41     4.2463   -0.5092   -7.4408 H        1 ZINC000003784182    0.1200
42     H42     3.0192   -0.6437   -5.3070 H        1 ZINC000003784182    0.1200
43     H43     1.3033   -3.6856   -2.2550 H        1 ZINC000003784182    0.1400
44     H44    -1.5810   -1.4513    0.3040 H        1 ZINC000003784182    0.0800
45     H45    -1.9363   -2.7373   -0.8742 H        1 ZINC000003784182    0.0600
46     H46    -3.1381   -3.1281    1.2592 H        1 ZINC000003784182    0.0700
47     H47    -1.5226   -1.9758    2.7461 H        1 ZINC000003784182    0.0600
48     H48    -1.8362   -3.6354    3.3077 H        1 ZINC000003784182    0.0600
49     H49     0.5891   -3.1215    3.3600 H        1 ZINC000003784182    0.0700
50     H50     1.3507   -5.0604    2.0149 H        1 ZINC000003784182    0.0600
51     H51    -0.1583   -5.4368    2.8807 H        1 ZINC000003784182    0.0600
52     H52    -0.2649   -6.2127    0.5280 H        1 ZINC000003784182    0.0700
53     H53    -2.3348   -5.4406    1.6539 H        1 ZINC000003784182    0.0600
54     H54    -2.3765   -5.0669   -0.0859 H        1 ZINC000003784182    0.0600
55     H55    -0.2584   -4.5386   -1.3012 H        1 ZINC000003784182    0.0700
56     H56     1.2922   -4.5359   -0.4272 H        1 ZINC000003784182    0.0700
57     H57     1.7909   -2.7307    1.2266 H        1 ZINC000003784182    0.0600
58     H58     0.5955   -1.4474    1.5308 H        1 ZINC000003784182    0.0800
@<TRIPOS>BOND
1     1     2     1
2     1     32    1
3     1     33    1
4     1     34    1
5     2     3     1
6     3     21    ar
7     3     4     ar
8     4     5     ar
9     4     35    1
10    5     6     ar
11    5     36    1
12    6     7     1
13    6     20    ar
14    7     19    ar
15    7     8     ar
16    8     9     ar
17    8     37    1
18    9     10    ar
19    9     38    1
20    10    18    ar
21    10    11    ar
22    11    12    ar
23    11    39    1
24    12    13    1
25    12    16    ar
26    13    14    ar
27    13    15    ar
28    16    17    ar
29    16    40    1
30    17    18    ar
31    17    41    1
32    18    19    ar
33    19    42    1
34    20    21    ar
35    20    43    1
36    21    22    1
37    22    30    1
38    22    31    1
39    22    23    1
40    23    24    1
41    23    44    1
42    23    45    1
43    24    29    1
44    24    25    1
45    24    46    1
46    25    26    1
47    25    47    1
48    25    48    1
49    26    27    1
50    26    31    1
51    26    49    1
52    27    28    1
53    27    50    1
54    27    51    1
55    28    29    1
56    28    30    1
57    28    52    1
58    29    53    1
59    29    54    1
60    30    55    1
61    30    56    1
62    31    57    1
63    31    58    1
@<TRIPOS>SUBSTRUCTURE
1   ZINC000003784182 1     RESIDUE    1   A     ZIN   1
