@<TRIPOS>MOLECULE
ZINC000003791297
54   55    0    0    0
SMALL
USER_CHARGES
NO_NAME
@<TRIPOS>ATOM
1 C1       -0.0187     1.5258     0.0104 C.3    1 <0>      -0.1500
2 C2        0.0021    -0.0041     0.0020 C.3    1 <0>       0.0600
3 O3       -1.3601    -0.5067     0.0123 O.3    1 <0>      -0.3600
4 C4       -1.5179    -1.8396     0.0067 C.2    1 <0>       0.4300
5 O5       -0.5499    -2.5625    -0.0065 O.2    1 <0>      -0.4900
6 C6       -2.9025    -2.4345     0.0167 C.3    1 <0>       0.1000
7 H7       -3.4476    -2.1011    -0.8663 H      1 <0>       0.1200
8 C8       -3.6438    -1.9799     1.2755 C.3    1 <0>      -0.0900
9 C9       -5.0887    -2.4806     1.2254 C.3    1 <0>      -0.0800
10 C10      -5.8189    -2.0328     2.4653 C.ar   1 <0>      -0.0800
11 C11      -5.8195    -2.8316     3.5935 C.ar   1 <0>      -0.1100
12 C12      -6.4892    -2.4209     4.7308 C.ar   1 <0>      -0.1200
13 C13      -7.1580    -1.2111     4.7401 C.ar   1 <0>      -0.1300
14 C14      -7.1567    -0.4119     3.6122 C.ar   1 <0>      -0.1200
15 C15      -6.4833    -0.8207     2.4763 C.ar   1 <0>      -0.1200
16 N16      -2.8057    -3.9003     0.0079 N.3    1 <0>      -0.6300
17 C17      -2.6648    -4.4104    -1.3625 C.3    1 <0>       0.0700
18 H18      -3.2448    -3.7874    -2.0434 H      1 <0>       0.0900
19 C19      -1.1906    -4.3761    -1.7703 C.3    1 <0>      -0.1800
20 C20      -3.1706    -5.8286    -1.4251 C.2    1 <0>       0.5300
21 O21      -3.6055    -6.3619    -0.4264 O.2    1 <0>      -0.5100
22 N22      -3.1395    -6.5043    -2.5908 N.am   1 <0>      -0.5900
23 C23      -2.6336    -5.9822    -3.8733 C.3    1 <0>       0.1000
24 C24      -3.3537    -6.8242    -4.9560 C.3    1 <0>      -0.1300
25 C25      -3.3969    -8.2227    -4.2853 C.3    1 <0>      -0.1100
26 C26      -3.5986    -7.8863    -2.7926 C.3    1 <0>       0.0700
27 H27      -4.6550    -7.9622    -2.5350 H      1 <0>       0.0600
28 C28      -2.7942    -8.8339    -1.9405 C.2    1 <0>       0.5000
29 O29      -1.6390    -8.5671    -1.6562 O.co2  1 <0>      -0.6900
30 O30      -3.2986    -9.8674    -1.5355 O.co2  1 <0>      -0.7000
31 H31       1.0039     1.9031     0.0027 H      1 <0>       0.0800
32 H32      -0.5459     1.8868    -0.8726 H      1 <0>       0.0700
33 H33      -0.5289     1.8773     0.9072 H      1 <0>       0.0700
34 H34       0.5123    -0.3556    -0.8948 H      1 <0>       0.0700
35 H35       0.5293    -0.3651     0.8851 H      1 <0>       0.0700
36 H36      -3.1482    -2.3880     2.1564 H      1 <0>       0.0700
37 H37      -3.6382    -0.8911     1.3272 H      1 <0>       0.0800
38 H38      -5.5843    -2.0725     0.3445 H      1 <0>       0.0700
39 H39      -5.0943    -3.5694     1.1737 H      1 <0>       0.1000
40 H40      -5.2970    -3.7768     3.5862 H      1 <0>       0.1300
41 H41      -6.4903    -3.0453     5.6120 H      1 <0>       0.1200
42 H42      -7.6819    -0.8905     5.6285 H      1 <0>       0.1200
43 H43      -7.6795     0.5331     3.6194 H      1 <0>       0.1200
44 H44      -6.4822    -0.1963     1.5951 H      1 <0>       0.1200
45 H45      -2.0454    -4.2160     0.5912 H      1 <0>       0.3600
46 H46      -0.8248    -3.3504    -1.7251 H      1 <0>       0.0700
47 H47      -0.6107    -4.9991    -1.0894 H      1 <0>       0.0700
48 H48      -1.0861    -4.7546    -2.7872 H      1 <0>       0.0700
49 H49      -2.8887    -4.9279    -3.9808 H      1 <0>       0.0600
50 H50      -1.5546    -6.1210    -3.9403 H      1 <0>       0.0700
51 H51      -4.3600    -6.4473    -5.1388 H      1 <0>       0.0700
52 H52      -2.7746    -6.8513    -5.8791 H      1 <0>       0.0800
53 H53      -4.2332    -8.8080    -4.6676 H      1 <0>       0.0700
54 H54      -2.4551    -8.7509    -4.4340 H      1 <0>       0.0700
@<TRIPOS>BOND
1    1    2 1
2    1   31 1
3    1   32 1
4    1   33 1
5    2    3 1
6    2   34 1
7    2   35 1
8    3    4 1
9    4    5 2
10    4    6 1
11    6    7 1
12    6    8 1
13    6   16 1
14    8    9 1
15    8   36 1
16    8   37 1
17    9   10 1
18    9   38 1
19    9   39 1
20   10   15 ar
21   10   11 ar
22   11   12 ar
23   11   40 1
24   12   13 ar
25   12   41 1
26   13   14 ar
27   13   42 1
28   14   15 ar
29   14   43 1
30   15   44 1
31   16   17 1
32   16   45 1
33   17   18 1
34   17   19 1
35   17   20 1
36   19   46 1
37   19   47 1
38   19   48 1
39   20   21 2
40   20   22 am
41   22   26 1
42   22   23 1
43   23   24 1
44   23   49 1
45   23   50 1
46   24   25 1
47   24   51 1
48   24   52 1
49   25   26 1
50   25   53 1
51   25   54 1
52   26   27 1
53   26   28 1
54   28   29 ar
55   28   30 ar
