@<TRIPOS>MOLECULE
ZINC000019364225
31   30    0    0    0
SMALL
USER_CHARGES
NO_NAME
@<TRIPOS>ATOM
1 N1       -0.0116     1.0048     0.0076 N.4    1 <0>      -0.6400
2 H2        0.0021    -0.0041     0.0020 H      1 <0>       0.4500
3 H3        0.9350     1.3541     0.0004 H      1 <0>       0.4400
4 H4       -0.4996     1.3391    -0.8099 H      1 <0>       0.4400
5 C5       -0.6992     1.4786     1.2162 C.3    1 <0>      -0.0100
6 C6       -0.7199     3.0084     1.2246 C.3    1 <0>       0.0300
7 N7       -1.4075     3.4822     2.4332 N.3    1 <0>      -0.6800
8 C8       -1.4467     4.9500     2.4754 C.3    1 <0>       0.0300
9 C9       -2.1688     5.4046     3.7454 C.3    1 <0>      -0.0100
10 N10      -2.2079     6.8725     3.7876 N.4    1 <0>      -0.5000
11 H11      -1.2660     7.2342     3.7885 H      1 <0>       0.4400
12 H12      -2.7006     7.2192     2.9782 H      1 <0>       0.4400
13 C13      -2.9012     7.3090     5.0070 C.3    1 <0>      -0.0400
14 C14      -2.9420     8.8378     5.0509 C.3    1 <0>      -0.0300
15 N15      -3.6353     9.2743     6.2703 N.4    1 <0>      -0.6300
16 H16      -4.5772     8.9126     6.2694 H      1 <0>       0.4500
17 H17      -3.1426     8.9276     7.0797 H      1 <0>       0.4500
18 H18      -3.6622    10.2825     6.2992 H      1 <0>       0.4600
19 H19      -1.7218     1.1013     1.2239 H      1 <0>       0.1400
20 H20      -0.1720     1.1175     2.0992 H      1 <0>       0.1500
21 H21       0.3027     3.3857     1.2169 H      1 <0>       0.1100
22 H22      -1.2471     3.3695     0.3415 H      1 <0>       0.0700
23 H23      -2.3366     3.0937     2.4964 H      1 <0>       0.3600
24 H24      -0.4292     5.3408     2.4763 H      1 <0>       0.1100
25 H25      -1.9789     5.3246     1.6010 H      1 <0>       0.0700
26 H26      -3.1863     5.0139     3.7445 H      1 <0>       0.1400
27 H27      -1.6365     5.0301     4.6198 H      1 <0>       0.1500
28 H28      -3.9188     6.9182     5.0060 H      1 <0>       0.1600
29 H29      -2.3690     6.9344     5.8813 H      1 <0>       0.1600
30 H30      -1.9245     9.2286     5.0518 H      1 <0>       0.1600
31 H31      -3.4742     9.2124     4.1765 H      1 <0>       0.1600
@<TRIPOS>BOND
1    1    2 1
2    1    3 1
3    1    4 1
4    1    5 1
5    5    6 1
6    5   19 1
7    5   20 1
8    6    7 1
9    6   21 1
10    6   22 1
11    7    8 1
12    7   23 1
13    8    9 1
14    8   24 1
15    8   25 1
16    9   10 1
17    9   26 1
18    9   27 1
19   10   11 1
20   10   12 1
21   10   13 1
22   13   14 1
23   13   28 1
24   13   29 1
25   14   15 1
26   14   30 1
27   14   31 1
28   15   16 1
29   15   17 1
30   15   18 1
