@<TRIPOS>MOLECULE
ZINC000043763856
34   35    0    0    0
SMALL
USER_CHARGES
NO_NAME
@<TRIPOS>ATOM
1 C1       -0.0816     1.4098    -0.0593 C.3    1 <0>      -0.0600
2 N2        0.0181    -0.0540    -0.1314 N.4    1 <0>      -0.5000
3 H3        0.4291    -0.4055     0.7205 H      1 <0>       0.4300
4 H4       -0.9032    -0.4486    -0.2480 H      1 <0>       0.4300
5 C5        0.8608    -0.4318    -1.2738 C.3    1 <0>       0.0500
6 C6        0.2863     0.1406    -2.5712 C.3    1 <0>      -0.1800
7 C7        2.3231     0.0646    -1.0583 C.3    1 <0>      -0.1100
8 H8        2.4298     1.0634    -0.6350 H      1 <0>       0.1200
9 C9        3.0221    -0.1719    -2.4319 C.3    1 <0>      -0.1300
10 C10       3.1442    -1.7084    -2.5488 C.3    1 <0>      -0.1400
11 C11       2.5075    -2.2556    -1.2349 C.3    1 <0>      -0.0900
12 H12       2.7855    -3.2727    -0.9583 H      1 <0>       0.1200
13 C13       2.9075    -1.1162    -0.2052 C.3    1 <0>      -0.1400
14 C14       0.9803    -1.9700    -1.3699 C.3    1 <0>      -0.0700
15 C15       0.2072    -2.6595    -0.2440 C.3    1 <0>      -0.1700
16 C16       0.4688    -2.4375    -2.7339 C.3    1 <0>      -0.1600
17 H17       0.9136     1.8360     0.0667 H      1 <0>       0.1200
18 H18      -0.5256     1.7895    -0.9796 H      1 <0>       0.1300
19 H19      -0.7069     1.6901     0.7883 H      1 <0>       0.1300
20 H20       0.3545     1.2282    -2.5500 H      1 <0>       0.0800
21 H21       0.8533    -0.2425    -3.4197 H      1 <0>       0.1200
22 H22      -0.7580    -0.1562    -2.6683 H      1 <0>       0.0800
23 H23       2.4102     0.2235    -3.2426 H      1 <0>       0.0800
24 H24       4.0096     0.2895    -2.4401 H      1 <0>       0.0800
25 H25       2.5923    -2.0685    -3.4171 H      1 <0>       0.0800
26 H26       4.1917    -2.0025    -2.6146 H      1 <0>       0.0800
27 H27       3.9878    -1.0342    -0.0855 H      1 <0>       0.1000
28 H28       2.4026    -1.2359     0.7534 H      1 <0>       0.0700
29 H29       0.5726    -2.3030     0.7191 H      1 <0>       0.0600
30 H30      -0.8540    -2.4291    -0.3378 H      1 <0>       0.0600
31 H31       0.3521    -3.7378    -0.3111 H      1 <0>       0.0900
32 H32       0.6787    -3.5001    -2.8560 H      1 <0>       0.0800
33 H33      -0.6065    -2.2702    -2.7956 H      1 <0>       0.0600
34 H34       0.9698    -1.8753    -3.5220 H      1 <0>       0.0800
@<TRIPOS>BOND
1    1    2 1
2    1   17 1
3    1   18 1
4    1   19 1
5    2    3 1
6    2    4 1
7    2    5 1
8    5   14 1
9    5    6 1
10    5    7 1
11    6   20 1
12    6   21 1
13    6   22 1
14    7    8 1
15    7   13 1
16    7    9 1
17    9   10 1
18    9   23 1
19    9   24 1
20   10   11 1
21   10   25 1
22   10   26 1
23   11   12 1
24   11   13 1
25   11   14 1
26   13   27 1
27   13   28 1
28   14   15 1
29   14   16 1
30   15   29 1
31   15   30 1
32   15   31 1
33   16   32 1
34   16   33 1
35   16   34 1
