@<TRIPOS>MOLECULE
ZINC000000014037
41    42    1     0     0
SMALL
USER_CHARGES
@<TRIPOS>ATOM
1      C1      0.0910   -1.1962    0.5011 C.3      1 ZINC000000014037   -0.1700
2      C2     -0.9480   -1.3036   -0.6169 C.3      1 ZINC000000014037    0.1100
3      N3     -0.2778   -1.6386   -1.8758 N.am     1 ZINC000000014037   -0.6000
4      C4     -0.0864   -3.0412   -2.2531 C.3      1 ZINC000000014037    0.0800
5      C5     -1.3568   -3.5666   -2.9245 C.3      1 ZINC000000014037   -0.1700
6      C6      0.1627   -0.6565   -2.6869 C.2      1 ZINC000000014037    0.5400
7      O7      0.0866    0.5013   -2.3339 O.2      1 ZINC000000014037   -0.5200
8      C8      0.7498   -0.9970   -4.0324 C.3      1 ZINC000000014037   -0.0800
9      C9      1.9631   -1.8904   -4.0049 C.ar     1 ZINC000000014037   -0.0600
10     C10     2.2152   -2.7464   -5.0606 C.ar     1 ZINC000000014037   -0.1200
11     C11     3.3281   -3.5659   -5.0354 C.ar     1 ZINC000000014037   -0.1100
12     C12     4.1892   -3.5292   -3.9546 C.ar     1 ZINC000000014037   -0.1100
13     C13     3.9376   -2.6725   -2.8993 C.ar     1 ZINC000000014037   -0.1100
14     C14     2.8270   -1.8499   -2.9265 C.ar     1 ZINC000000014037   -0.1100
15     C15     0.6854    0.0744   -5.1228 C.3      1 ZINC000000014037   -0.1100
16     C16    -0.2189   -1.1570   -5.2058 C.3      1 ZINC000000014037   -0.1900
17     H17     0.0216   -1.9082   -5.9581 H        1 ZINC000000014037    0.1400
18     C18    -1.7096   -0.9590   -4.9239 C.3      1 ZINC000000014037    0.0100
19     N19    -2.4922   -1.4283   -6.0751 N.4      1 ZINC000000014037   -0.6300
20     H20    -2.3066   -2.4077   -6.2312 H        1 ZINC000000014037    0.4400
21     H21    -3.4753   -1.2977   -5.8892 H        1 ZINC000000014037    0.4400
22     H22    -2.2323   -0.9017   -6.8956 H        1 ZINC000000014037    0.4400
23     H23     0.6096   -2.1489    0.6079 H        1 ZINC000000014037    0.0600
24     H24     0.8112   -0.4162    0.2541 H        1 ZINC000000014037    0.0600
25     H25    -0.4076   -0.9469    1.4378 H        1 ZINC000000014037    0.0700
26     H26    -1.6682   -2.0835   -0.3699 H        1 ZINC000000014037    0.0800
27     H27    -1.4665   -0.3508   -0.7237 H        1 ZINC000000014037    0.0900
28     H28     0.7505   -3.1198   -2.9470 H        1 ZINC000000014037    0.1000
29     H29     0.1242   -3.6318   -1.3615 H        1 ZINC000000014037    0.0900
30     H30    -1.2685   -4.6422   -3.0777 H        1 ZINC000000014037    0.0800
31     H31    -2.2167   -3.3598   -2.2873 H        1 ZINC000000014037    0.0700
32     H32    -1.4904   -3.0722   -3.8867 H        1 ZINC000000014037    0.0400
33     H33     1.5425   -2.7751   -5.9050 H        1 ZINC000000014037    0.1200
34     H34     3.5247   -4.2352   -5.8599 H        1 ZINC000000014037    0.1300
35     H35     5.0583   -4.1700   -3.9346 H        1 ZINC000000014037    0.1300
36     H36     4.6101   -2.6440   -2.0547 H        1 ZINC000000014037    0.1300
37     H37     2.6304   -1.1806   -2.1020 H        1 ZINC000000014037    0.1200
38     H38     0.2184    1.0254   -4.8670 H        1 ZINC000000014037    0.1200
39     H39     1.5208    0.1332   -5.8205 H        1 ZINC000000014037    0.1200
40     H40    -1.9904   -1.5278   -4.0375 H        1 ZINC000000014037    0.1400
41     H41    -1.9101    0.0990   -4.7552 H        1 ZINC000000014037    0.1400
@<TRIPOS>BOND
1     1     2     1
2     1     23    1
3     1     24    1
4     1     25    1
5     2     3     1
6     2     26    1
7     2     27    1
8     3     4     1
9     3     6     am
10    4     5     1
11    4     28    1
12    4     29    1
13    5     30    1
14    5     31    1
15    5     32    1
16    6     7     2
17    6     8     1
18    8     16    1
19    8     9     1
20    8     15    1
21    9     14    ar
22    9     10    ar
23    10    11    ar
24    10    33    1
25    11    12    ar
26    11    34    1
27    12    13    ar
28    12    35    1
29    13    14    ar
30    13    36    1
31    14    37    1
32    15    16    1
33    15    38    1
34    15    39    1
35    16    17    1
36    16    18    1
37    18    19    1
38    18    40    1
39    18    41    1
40    19    20    1
41    19    21    1
42    19    22    1
@<TRIPOS>SUBSTRUCTURE
1   ZINC000000014037 1     RESIDUE    1   A     ZIN   1
