@<TRIPOS>MOLECULE
ZINC000000968326
45   47    0    0    0
SMALL
USER_CHARGES
NO_NAME
@<TRIPOS>ATOM
1 C1       -0.0187     1.5258     0.0104 C.3    1 <0>      -0.1500
2 C2        0.0021    -0.0041     0.0020 C.3    1 <0>      -0.0800
3 C3       -1.4117    -0.5257     0.0127 C.ar   1 <0>      -0.1300
4 C4       -2.0608    -0.7696     1.2131 C.ar   1 <0>      -0.0700
5 C5       -3.3616    -1.2488     1.1746 C.ar   1 <0>      -0.1600
6 C6       -3.9632    -1.4657    -0.0503 C.ar   1 <0>       0.1200
7 C7       -5.3766    -1.9859    -0.1041 C.3    1 <0>      -0.0700
8 C8       -6.2364    -1.0401    -0.9450 C.3    1 <0>       0.0700
9 O9       -7.5766    -1.5333    -0.9960 O.3    1 <0>      -0.3200
10 C10      -8.4755    -0.8046    -1.7087 C.ar   1 <0>       0.1400
11 C11      -8.0746     0.3582    -2.3505 C.ar   1 <0>      -0.2100
12 C12      -8.9901     1.0969    -3.0747 C.ar   1 <0>      -0.0600
13 C13     -10.3052     0.6786    -3.1597 C.ar   1 <0>      -0.1400
14 C14     -11.3020     1.4867    -3.9500 C.3    1 <0>      -0.0500
15 C15     -11.3203     0.9976    -5.3996 C.3    1 <0>      -0.1000
16 H16     -11.5035    -0.0762    -5.4404 H      1 <0>       0.1600
17 S17      -9.7573     1.4179    -6.2422 S.3    1 <0>      -0.1000
18 C18     -10.5358     2.4466    -7.4582 C.2    1 <0>       0.5400
19 O19      -9.9756     3.0472    -8.3546 O.2    1 <0>      -0.4300
20 N20     -11.8476     2.4429    -7.2123 N.am   1 <0>      -0.6800
21 C21     -12.3584     1.7483    -6.2045 C.2    1 <0>       0.5400
22 O22     -13.5440     1.7219    -5.9524 O.2    1 <0>      -0.4500
23 C23     -10.7072    -0.4801    -2.5214 C.ar   1 <0>      -0.0700
24 C24      -9.7944    -1.2252    -1.8003 C.ar   1 <0>      -0.1500
25 N25      -3.3151    -1.2225    -1.1728 N.ar   1 <0>      -0.4800
26 C26      -2.0797    -0.7615    -1.1742 C.ar   1 <0>       0.1100
27 H27       1.0039     1.9031     0.0027 H      1 <0>       0.0600
28 H28      -0.5459     1.8868    -0.8726 H      1 <0>       0.0600
29 H29      -0.5289     1.8773     0.9072 H      1 <0>       0.0600
30 H30       0.5123    -0.3556    -0.8948 H      1 <0>       0.0800
31 H31       0.5293    -0.3651     0.8851 H      1 <0>       0.0800
32 H32      -1.5652    -0.5910     2.1559 H      1 <0>       0.1400
33 H33      -3.8974    -1.4503     2.0904 H      1 <0>       0.1400
34 H34      -5.3816    -2.9785    -0.5543 H      1 <0>       0.1000
35 H35      -5.7814    -2.0432     0.9064 H      1 <0>       0.0900
36 H36      -6.2315    -0.0474    -0.4947 H      1 <0>       0.0600
37 H37      -5.8317    -0.9828    -1.9554 H      1 <0>       0.0800
38 H38      -7.0476     0.6857    -2.2837 H      1 <0>       0.1300
39 H39      -8.6784     2.0021    -3.5745 H      1 <0>       0.1300
40 H40     -12.2938     1.3675    -3.5138 H      1 <0>       0.1000
41 H41     -11.0181     2.5388    -3.9251 H      1 <0>       0.0900
42 H42     -12.4400     2.9574    -7.7827 H      1 <0>       0.4200
43 H43     -11.7350    -0.8049    -2.5896 H      1 <0>       0.1300
44 H44     -10.1089    -2.1302    -1.3018 H      1 <0>       0.1300
45 H45      -1.5810    -0.5743    -2.1137 H      1 <0>       0.1600
@<TRIPOS>BOND
1    1    2 1
2    1   27 1
3    1   28 1
4    1   29 1
5    2    3 1
6    2   30 1
7    2   31 1
8    3   26 ar
9    3    4 ar
10    4    5 ar
11    4   32 1
12    5    6 ar
13    5   33 1
14    6    7 1
15    6   25 ar
16    7    8 1
17    7   34 1
18    7   35 1
19    8    9 1
20    8   36 1
21    8   37 1
22    9   10 1
23   10   24 ar
24   10   11 ar
25   11   12 ar
26   11   38 1
27   12   13 ar
28   12   39 1
29   13   14 1
30   13   23 ar
31   14   15 1
32   14   40 1
33   14   41 1
34   15   16 1
35   15   21 1
36   15   17 1
37   17   18 1
38   18   19 2
39   18   20 am
40   20   21 am
41   20   42 1
42   21   22 2
43   23   24 ar
44   23   43 1
45   24   44 1
46   25   26 ar
47   26   45 1
