@<TRIPOS>MOLECULE
ZINC000000020221
33   34    0    0    0
SMALL
USER_CHARGES
NO_NAME
@<TRIPOS>ATOM
1 C1       -0.0173     1.4248     0.0099 C.3    1 <0>       0.0300
2 O2        0.0021    -0.0041     0.0020 O.3    1 <0>      -0.3200
3 C3        0.6057    -0.6070    -1.0556 C.ar   1 <0>       0.1300
4 C4        1.1740     0.1766    -2.0644 C.ar   1 <0>      -0.1900
5 C5        1.7851    -0.3978    -3.1353 C.ar   1 <0>      -0.0700
6 C6        1.8489    -1.7984    -3.2330 C.ar   1 <0>      -0.0800
7 C7        2.4730    -2.4248    -4.3253 C.ar   1 <0>      -0.0900
8 C8        2.5169    -3.7837    -4.3877 C.ar   1 <0>      -0.0900
9 C9        3.1876    -4.4514    -5.5604 C.3    1 <0>      -0.0700
10 C10       4.6687    -4.6695    -5.2446 C.3    1 <0>      -0.1700
11 C11       5.3394    -5.3372    -6.4174 C.2    1 <0>       0.3500
12 C12       6.8094    -5.6640    -6.3589 C.3    1 <0>      -0.2100
13 O13       4.6989    -5.6105    -7.4040 O.2    1 <0>      -0.4600
14 C14       1.9515    -4.5671    -3.3831 C.ar   1 <0>      -0.1000
15 C15       1.3389    -3.9960    -2.3105 C.ar   1 <0>      -0.1100
16 C16       1.2737    -2.5952    -2.2111 C.ar   1 <0>      -0.0200
17 C17       0.6543    -1.9709    -1.1164 C.ar   1 <0>      -0.1500
18 H18       1.0053     1.8021     0.0021 H      1 <0>       0.0600
19 H19      -0.5445     1.7859    -0.8732 H      1 <0>       0.0600
20 H20      -0.5275     1.7763     0.9067 H      1 <0>       0.1000
21 H21       1.1268     1.2531    -1.9925 H      1 <0>       0.1300
22 H22       2.2191     0.2200    -3.9075 H      1 <0>       0.1300
23 H23       2.9152    -1.8309    -5.1114 H      1 <0>       0.1300
24 H24       2.7115    -5.4130    -5.7521 H      1 <0>       0.0800
25 H25       3.0937    -3.8173    -6.4420 H      1 <0>       0.0800
26 H26       5.1448    -3.7079    -5.0529 H      1 <0>       0.1000
27 H27       4.7626    -5.3036    -4.3630 H      1 <0>       0.1000
28 H28       7.2144    -5.3457    -5.3984 H      1 <0>       0.0800
29 H29       6.9474    -6.7392    -6.4731 H      1 <0>       0.0900
30 H30       7.3295    -5.1435    -7.1630 H      1 <0>       0.0900
31 H31       1.9999    -5.6435    -3.4572 H      1 <0>       0.1200
32 H32       0.9051    -4.6156    -1.5396 H      1 <0>       0.1300
33 H33       0.2157    -2.5656    -0.3288 H      1 <0>       0.1300
@<TRIPOS>BOND
1    1    2 1
2    1   18 1
3    1   19 1
4    1   20 1
5    2    3 1
6    3   17 ar
7    3    4 ar
8    4    5 ar
9    4   21 1
10    5    6 ar
11    5   22 1
12    6   16 ar
13    6    7 ar
14    7    8 ar
15    7   23 1
16    8    9 1
17    8   14 ar
18    9   10 1
19    9   24 1
20    9   25 1
21   10   11 1
22   10   26 1
23   10   27 1
24   11   12 1
25   11   13 2
26   12   28 1
27   12   29 1
28   12   30 1
29   14   15 ar
30   14   31 1
31   15   16 ar
32   15   32 1
33   16   17 ar
34   17   33 1
