@<TRIPOS>MOLECULE
ZINC000022059926
48   51    0    0    0
SMALL
USER_CHARGES
NO_NAME
@<TRIPOS>ATOM
1 C1        0.0645     1.3915     0.0959 C.3    1 <0>       0.0300
2 O2        0.0718    -0.0373     0.0755 O.3    1 <0>      -0.2100
3 N3        0.7112    -0.5939    -1.0587 N.2    1 <0>      -0.3500
4 C4        0.7835    -1.8643    -1.1933 C.2    1 <0>       0.1200
5 C5        0.2375    -2.9118    -0.2461 C.3    1 <0>       0.1100
6 N6        0.1483    -4.1659    -1.0126 N.pl3  1 <0>      -0.6100
7 C7       -0.7704    -5.1875    -0.8341 C.ar   1 <0>       0.4600
8 N8       -0.7086    -6.2562    -1.6104 N.ar   1 <0>      -0.5600
9 C9       -1.5657    -7.2617    -1.4785 C.ar   1 <0>       0.4400
10 C10      -2.5658    -7.1974    -0.4930 C.ar   1 <0>      -0.2600
11 C11      -2.6518    -6.0757     0.3411 C.ar   1 <0>       0.0200
12 C12      -1.7398    -5.0688     0.1672 C.ar   1 <0>      -0.0600
13 F13      -1.7829    -3.9670     0.9478 F      1 <0>      -0.1300
14 C14      -3.5068    -8.3203    -0.3609 C.2    1 <0>       0.4200
15 O15      -4.3916    -8.3130     0.4772 O.2    1 <0>      -0.4400
16 C16      -3.3337    -9.4545    -1.2861 C.2    1 <0>      -0.2700
17 C17      -4.2293   -10.6144    -1.2223 C.2    1 <0>       0.5400
18 O18      -4.0750   -11.5500    -1.9964 O.co2  1 <0>      -0.7000
19 O19      -5.1309   -10.6467    -0.3951 O.co2  1 <0>      -0.6600
20 C20      -2.3124    -9.4042    -2.2146 C.2    1 <0>       0.1400
21 N21      -1.4773    -8.3612    -2.3013 N.pl3  1 <0>      -0.4500
22 C22      -0.4220    -8.3922    -3.3170 C.3    1 <0>       0.0600
23 C23      -0.1248    -9.7356    -3.9862 C.3    1 <0>      -0.1800
24 C24      -0.8445    -8.6344    -4.7675 C.3    1 <0>      -0.1800
25 C25       1.2333    -4.1144    -2.0086 C.3    1 <0>       0.1300
26 C26       1.4274    -2.6237    -2.3366 C.3    1 <0>      -0.0700
27 H27       0.9395    -2.3793    -3.2801 H      1 <0>       0.1300
28 C28       2.9185    -2.2892    -2.4115 C.3    1 <0>       0.0000
29 N29       3.0865    -0.8947    -2.8418 N.4    1 <0>      -0.6400
30 H30       2.6679    -0.7707    -3.7514 H      1 <0>       0.4400
31 H31       2.6371    -0.2815    -2.1783 H      1 <0>       0.4400
32 H32       4.0698    -0.6741    -2.8912 H      1 <0>       0.4400
33 H33       1.0902     1.7602     0.0917 H      1 <0>       0.0500
34 H34      -0.4594     1.7647    -0.7841 H      1 <0>       0.0600
35 H35      -0.4430     1.7394     0.9956 H      1 <0>       0.1100
36 H36       0.9128    -3.0385     0.6001 H      1 <0>       0.1000
37 H37      -0.7515    -2.6180     0.1057 H      1 <0>       0.1200
38 H38      -3.4136    -6.0085     1.1036 H      1 <0>       0.1600
39 H39      -2.1833   -10.2339    -2.8938 H      1 <0>       0.1800
40 H40       0.4178    -7.7195    -3.1431 H      1 <0>       0.1500
41 H41       0.9108    -9.9471    -4.2526 H      1 <0>       0.1100
42 H42      -0.7145   -10.5964    -3.6707 H      1 <0>       0.1100
43 H43      -1.9076    -8.7707    -4.9660 H      1 <0>       0.1000
44 H44      -0.2823    -8.1214    -5.5478 H      1 <0>       0.1100
45 H45       2.1482    -4.5339    -1.5903 H      1 <0>       0.0900
46 H46       0.9451    -4.6599    -2.9072 H      1 <0>       0.1100
47 H47       3.3708    -2.4232    -1.4288 H      1 <0>       0.1400
48 H48       3.4040    -2.9516    -3.1282 H      1 <0>       0.1500
@<TRIPOS>BOND
1    1    2 1
2    1   33 1
3    1   34 1
4    1   35 1
5    2    3 1
6    3    4 2
7    4   26 1
8    4    5 1
9    5    6 1
10    5   36 1
11    5   37 1
12    6    7 1
13    6   25 1
14    7   12 ar
15    7    8 ar
16    8    9 ar
17    9   21 1
18    9   10 ar
19   10   11 ar
20   10   14 1
21   11   12 ar
22   11   38 1
23   12   13 1
24   14   15 2
25   14   16 1
26   16   17 1
27   16   20 2
28   17   18 ar
29   17   19 ar
30   20   21 1
31   20   39 1
32   21   22 1
33   22   24 1
34   22   23 1
35   22   40 1
36   23   24 1
37   23   41 1
38   23   42 1
39   24   43 1
40   24   44 1
41   25   26 1
42   25   45 1
43   25   46 1
44   26   27 1
45   26   28 1
46   28   29 1
47   28   47 1
48   28   48 1
49   29   30 1
50   29   31 1
51   29   32 1
