@<TRIPOS>MOLECULE
ZINC000098023177
70    73    1     0     0
SMALL
USER_CHARGES
@<TRIPOS>ATOM
1      C1     -0.1249    1.0783    1.2386 C.2      1 ZINC000098023177   -0.0900
2      C2     -0.0486   -0.1138    0.6536 C.2      1 ZINC000098023177   -0.2200
3      C3      1.2286   -0.8427    0.6337 C.2      1 ZINC000098023177    0.5400
4      O4      2.2151   -0.3555    1.1523 O.2      1 ZINC000098023177   -0.5200
5      N5      1.3059   -2.0506    0.0408 N.am     1 ZINC000098023177   -0.6500
6      C6      2.5463   -2.6928   -0.0829 C.ar     1 ZINC000098023177    0.1600
7      C7      3.7156   -1.9473   -0.0917 C.ar     1 ZINC000098023177   -0.1100
8      C8      4.9423   -2.5833   -0.2136 C.ar     1 ZINC000098023177    0.1600
9      N9      6.1256   -1.8291   -0.2225 N.pl3    1 ZINC000098023177   -0.6200
10     C10     6.0993   -0.5046   -0.6247 C.ar     1 ZINC000098023177    0.5700
11     N11     4.9719    0.0030   -1.1019 N.ar     1 ZINC000098023177   -0.5600
12     C12     4.9051    1.2656   -1.4974 C.ar     1 ZINC000098023177    0.1900
13     C13     6.0303    2.0623   -1.4095 C.ar     1 ZINC000098023177   -0.2800
14     C14     7.2077    1.5000   -0.9016 C.ar     1 ZINC000098023177    0.3100
15     C15     8.4388    2.3111   -0.7869 C.2      1 ZINC000098023177   -0.1500
16     C16     8.5843    3.6176   -1.1272 C.2      1 ZINC000098023177    0.1100
17     N17     9.8613    4.0187   -0.8795 N.pl3    1 ZINC000098023177   -0.4800
18     C18    10.3784    5.3672   -1.1251 C.3      1 ZINC000098023177    0.0700
19     C19    10.5981    2.9738   -0.3635 C.ar     1 ZINC000098023177    0.0900
20     C20    11.9208    2.8532    0.0493 C.ar     1 ZINC000098023177   -0.1300
21     C21    12.3828    1.6486    0.5331 C.ar     1 ZINC000098023177   -0.1000
22     C22    11.5406    0.5489    0.6134 C.ar     1 ZINC000098023177   -0.1500
23     C23    10.2274    0.6476    0.2096 C.ar     1 ZINC000098023177   -0.0600
24     C24     9.7443    1.8613   -0.2753 C.ar     1 ZINC000098023177   -0.0700
25     N25     7.1997    0.2239   -0.5178 N.ar     1 ZINC000098023177   -0.5600
26     C26     4.9999   -3.9699   -0.3268 C.ar     1 ZINC000098023177    0.0800
27     O27     6.2035   -4.5930   -0.4455 O.3      1 ZINC000098023177   -0.3200
28     C28     6.1884   -6.0175   -0.5575 C.3      1 ZINC000098023177    0.0300
29     C29     3.8320   -4.7156   -0.3182 C.ar     1 ZINC000098023177   -0.1900
30     C30     2.6050   -4.0816   -0.1915 C.ar     1 ZINC000098023177    0.0700
31     N31     1.4240   -4.8359   -0.1828 N.3      1 ZINC000098023177   -0.5000
32     C32     1.2284   -5.5226   -1.4666 C.3      1 ZINC000098023177    0.0200
33     C33     1.4184   -5.7925    0.9321 C.3      1 ZINC000098023177    0.0600
34     C34     0.0277   -6.4169    1.0615 C.3      1 ZINC000098023177    0.0600
35     N35     0.0222   -7.3735    2.1763 N.3      1 ZINC000098023177   -0.5500
36     C36     0.2177   -6.6868    3.4602 C.3      1 ZINC000098023177    0.0200
37     C37    -1.2159   -8.1642    2.1855 C.3      1 ZINC000098023177    0.0300
38     H38     0.7510    1.5109    1.6991 H        1 ZINC000098023177    0.1100
39     H39    -1.0618    1.6156    1.2494 H        1 ZINC000098023177    0.1200
40     H40    -0.9245   -0.5464    0.1931 H        1 ZINC000098023177    0.1300
41     H41     0.5035   -2.4758   -0.3002 H        1 ZINC000098023177    0.4200
42     H42     3.6712   -0.8718   -0.0039 H        1 ZINC000098023177    0.1900
43     H43     6.9620   -2.2358    0.0532 H        1 ZINC000098023177    0.4300
44     H44     3.9808    1.6678   -1.8849 H        1 ZINC000098023177    0.1700
45     H45     6.0024    3.0947   -1.7256 H        1 ZINC000098023177    0.1400
46     H46     7.8042    4.2443   -1.5337 H        1 ZINC000098023177    0.1800
47     H47    10.2345    5.9793   -0.2347 H        1 ZINC000098023177    0.0700
48     H48    11.4413    5.3116   -1.3600 H        1 ZINC000098023177    0.0800
49     H49     9.8440    5.8141   -1.9635 H        1 ZINC000098023177    0.0900
50     H50    12.5851    3.7027   -0.0095 H        1 ZINC000098023177    0.1200
51     H51    13.4106    1.5595    0.8525 H        1 ZINC000098023177    0.1300
52     H52    11.9167   -0.3892    0.9940 H        1 ZINC000098023177    0.1200
53     H53     9.5742   -0.2101    0.2733 H        1 ZINC000098023177    0.1300
54     H54     5.7226   -6.4468    0.3295 H        1 ZINC000098023177    0.0500
55     H55     5.6205   -6.3064   -1.4420 H        1 ZINC000098023177    0.0500
56     H56     7.2104   -6.3859   -0.6456 H        1 ZINC000098023177    0.1000
57     H57     3.8775   -5.7910   -0.4064 H        1 ZINC000098023177    0.1300
58     H58     2.0688   -6.1913   -1.6527 H        1 ZINC000098023177    0.0300
59     H59     0.3048   -6.1005   -1.4325 H        1 ZINC000098023177    0.0700
60     H60     1.1664   -4.7855   -2.2671 H        1 ZINC000098023177    0.0700
61     H61     2.1522   -6.5759    0.7423 H        1 ZINC000098023177    0.0500
62     H62     1.6714   -5.2741    1.8569 H        1 ZINC000098023177    0.0800
63     H63    -0.7061   -5.6335    1.2512 H        1 ZINC000098023177    0.0400
64     H64    -0.2253   -6.9354    0.1366 H        1 ZINC000098023177    0.0800
65     H65    -0.5863   -5.9669    3.6133 H        1 ZINC000098023177    0.0300
66     H66     0.2095   -7.4182    4.2683 H        1 ZINC000098023177    0.0700
67     H67     1.1751   -6.1658    3.4514 H        1 ZINC000098023177    0.0700
68     H68    -1.3007   -8.7172    1.2500 H        1 ZINC000098023177    0.0700
69     H69    -1.1938   -8.8642    3.0207 H        1 ZINC000098023177    0.0700
70     H70    -2.0718   -7.4978    2.2925 H        1 ZINC000098023177    0.0300
@<TRIPOS>BOND
1     1     2     2
2     1     38    1
3     1     39    1
4     2     3     1
5     2     40    1
6     3     4     2
7     3     5     am
8     5     6     1
9     5     41    1
10    6     30    ar
11    6     7     ar
12    7     8     ar
13    7     42    1
14    8     9     1
15    8     26    ar
16    9     10    1
17    9     43    1
18    10    25    ar
19    10    11    ar
20    11    12    ar
21    12    13    ar
22    12    44    1
23    13    14    ar
24    13    45    1
25    14    15    1
26    14    25    ar
27    15    24    1
28    15    16    2
29    16    17    1
30    16    46    1
31    17    18    1
32    17    19    1
33    18    47    1
34    18    48    1
35    18    49    1
36    19    24    ar
37    19    20    ar
38    20    21    ar
39    20    50    1
40    21    22    ar
41    21    51    1
42    22    23    ar
43    22    52    1
44    23    24    ar
45    23    53    1
46    26    27    1
47    26    29    ar
48    27    28    1
49    28    54    1
50    28    55    1
51    28    56    1
52    29    30    ar
53    29    57    1
54    30    31    1
55    31    32    1
56    31    33    1
57    32    58    1
58    32    59    1
59    32    60    1
60    33    34    1
61    33    61    1
62    33    62    1
63    34    35    1
64    34    63    1
65    34    64    1
66    35    36    1
67    35    37    1
68    36    65    1
69    36    66    1
70    36    67    1
71    37    68    1
72    37    69    1
73    37    70    1
@<TRIPOS>SUBSTRUCTURE
1   ZINC000098023177 1     RESIDUE    1   A     ZIN   1
