@<TRIPOS>MOLECULE
ZINC000000085733
26    26    1     0     0
SMALL
USER_CHARGES
@<TRIPOS>ATOM
1      N1     -2.0036    0.8805    1.0771 N.4      1 ZINC000000085733   -0.6300
2      H2     -2.5593    0.9065    1.9189 H        1 ZINC000000085733    0.4200
3      H3     -1.7778   -0.0770    0.8527 H        1 ZINC000000085733    0.4400
4      H4     -2.5254    1.2901    0.3168 H        1 ZINC000000085733    0.4300
5      C5     -0.7636    1.6401    1.2852 C.3      1 ZINC000000085733    0.0000
6      C6     -0.0251    1.0866    2.5055 C.3      1 ZINC000000085733   -0.0500
7      H7      0.1306    0.0150    2.3807 H        1 ZINC000000085733    0.1100
8      C8      1.3286    1.7861    2.6430 C.3      1 ZINC000000085733   -0.1800
9      C9      2.2064    1.4156    1.4754 C.2      1 ZINC000000085733    0.4900
10     O10     1.8322    0.5769    0.6734 O.co2    1 ZINC000000085733   -0.7000
11     O11     3.2907    1.9544    1.3327 O.co2    1 ZINC000000085733   -0.6800
12     C12    -0.8465    1.3339    3.7446 C.ar     1 ZINC000000085733   -0.1100
13     C13    -1.1785    2.6260    4.1069 C.ar     1 ZINC000000085733   -0.1000
14     C14    -1.9318    2.8534    5.2432 C.ar     1 ZINC000000085733   -0.1000
15     C15    -2.3535    1.7877    6.0181 C.ar     1 ZINC000000085733   -0.0300
16     Cl16   -3.3001    2.0725    7.4451 Cl       1 ZINC000000085733   -0.0600
17     C17    -2.0208    0.4948    5.6550 C.ar     1 ZINC000000085733   -0.1100
18     C18    -1.2723    0.2682    4.5154 C.ar     1 ZINC000000085733   -0.1100
19     H19    -0.1289    1.5482    0.4039 H        1 ZINC000000085733    0.1600
20     H20    -1.0044    2.6901    1.4517 H        1 ZINC000000085733    0.1200
21     H21     1.1799    2.8658    2.6575 H        1 ZINC000000085733    0.0700
22     H22     1.8070    1.4727    3.5709 H        1 ZINC000000085733    0.0800
23     H23    -0.8490    3.4579    3.5021 H        1 ZINC000000085733    0.1400
24     H24    -2.1909    3.8629    5.5264 H        1 ZINC000000085733    0.1400
25     H25    -2.3495   -0.3376    6.2596 H        1 ZINC000000085733    0.1400
26     H26    -1.0129   -0.7410    4.2316 H        1 ZINC000000085733    0.1400
@<TRIPOS>BOND
1     1     2     1
2     1     3     1
3     1     4     1
4     1     5     1
5     5     6     1
6     5     19    1
7     5     20    1
8     6     7     1
9     6     8     1
10    6     12    1
11    8     9     1
12    8     21    1
13    8     22    1
14    9     10    ar
15    9     11    ar
16    12    18    ar
17    12    13    ar
18    13    14    ar
19    13    23    1
20    14    15    ar
21    14    24    1
22    15    16    1
23    15    17    ar
24    17    18    ar
25    17    25    1
26    18    26    1
@<TRIPOS>SUBSTRUCTURE
1   ZINC000000085733 1     RESIDUE    1   A     ZIN   1
