@<TRIPOS>MOLECULE
ZINC000019594594
49    50    1     0     0
SMALL
USER_CHARGES
@<TRIPOS>ATOM
1      C1     -0.0187    1.5258    0.0104 C.3      1 ZINC000019594594   -0.1500
2      C2      0.0021   -0.0041    0.0020 C.3      1 ZINC000019594594   -0.1200
3      C3      0.7182   -0.4975   -1.2568 C.3      1 ZINC000019594594   -0.1200
4      C4      0.7390   -2.0273   -1.2652 C.3      1 ZINC000019594594    0.0600
5      O5      1.4078   -2.4882   -2.4409 O.3      1 ZINC000019594594   -0.3100
6      C6      1.5137   -3.8341   -2.6035 C.ar     1 ZINC000019594594    0.1100
7      C7      0.9794   -4.6915   -1.6532 C.ar     1 ZINC000019594594   -0.1700
8      C8      1.0869   -6.0587   -1.8183 C.ar     1 ZINC000019594594   -0.1000
9      C9      1.7288   -6.5741   -2.9346 C.ar     1 ZINC000019594594    0.0800
10     O10     1.8351   -7.9200   -3.0969 O.3      1 ZINC000019594594   -0.3100
11     C11     2.5088   -8.3808   -4.2699 C.3      1 ZINC000019594594    0.0600
12     C12     2.5293   -9.9106   -4.2784 C.3      1 ZINC000019594594   -0.1500
13     C13     3.2506  -10.4040   -5.5343 C.3      1 ZINC000019594594   -0.0100
14     N14     3.2702  -11.8728   -5.5425 N.4      1 ZINC000019594594   -0.3800
15     H15     3.6813  -12.2087   -4.6844 H        1 ZINC000019594594    0.4200
16     C16     4.0648  -12.3459   -6.6844 C.3      1 ZINC000019594594   -0.0400
17     C17     4.0839  -13.8764   -6.6907 C.3      1 ZINC000019594594    0.0400
18     O18     2.7407  -14.3646   -6.7472 O.3      1 ZINC000019594594   -0.3600
19     C19     1.9194  -13.9111   -5.6675 C.3      1 ZINC000019594594    0.0400
20     C20     1.8963  -12.3806   -5.6592 C.3      1 ZINC000019594594   -0.0500
21     C21     2.2620   -5.7166   -3.8855 C.ar     1 ZINC000019594594   -0.1600
22     C22     2.1510   -4.3495   -3.7223 C.ar     1 ZINC000019594594   -0.1100
23     H23     1.0039    1.9031    0.0027 H        1 ZINC000019594594    0.0600
24     H24    -0.5459    1.8868   -0.8726 H        1 ZINC000019594594    0.0600
25     H25    -0.5289    1.8773    0.9072 H        1 ZINC000019594594    0.0600
26     H26     0.5293   -0.3651    0.8851 H        1 ZINC000019594594    0.0700
27     H27    -1.0205   -0.3814    0.0098 H        1 ZINC000019594594    0.0700
28     H28     0.1910   -0.1364   -2.1398 H        1 ZINC000019594594    0.0800
29     H29     1.7408   -0.1202   -1.2645 H        1 ZINC000019594594    0.0800
30     H30     1.2661   -2.3884   -0.3821 H        1 ZINC000019594594    0.0600
31     H31    -0.2836   -2.4046   -1.2575 H        1 ZINC000019594594    0.0600
32     H32     0.4795   -4.2902   -0.7840 H        1 ZINC000019594594    0.1400
33     H33     0.6715   -6.7264   -1.0780 H        1 ZINC000019594594    0.1400
34     H34     1.9854   -8.0195   -5.1551 H        1 ZINC000019594594    0.0700
35     H35     3.5315   -8.0037   -4.2732 H        1 ZINC000019594594    0.0700
36     H36     3.0527  -10.2720   -3.3932 H        1 ZINC000019594594    0.1000
37     H37     1.5066  -10.2877   -4.2750 H        1 ZINC000019594594    0.1000
38     H38     2.7272  -10.0427   -6.4195 H        1 ZINC000019594594    0.1400
39     H39     4.2733  -10.0269   -5.5377 H        1 ZINC000019594594    0.1400
40     H40     3.6203  -11.9840   -7.6116 H        1 ZINC000019594594    0.1400
41     H41     5.0843  -11.9698   -6.5987 H        1 ZINC000019594594    0.1400
42     H42     4.6366  -14.2300   -7.5611 H        1 ZINC000019594594    0.1400
43     H43     4.5647  -14.2382   -5.7818 H        1 ZINC000019594594    0.0800
44     H44     0.9056  -14.2898   -5.7974 H        1 ZINC000019594594    0.1400
45     H45     2.3261  -14.2740   -4.7236 H        1 ZINC000019594594    0.0800
46     H46     1.3059  -12.0305   -4.8124 H        1 ZINC000019594594    0.1400
47     H47     1.4525  -12.0186   -6.5866 H        1 ZINC000019594594    0.1400
48     H48     2.7615   -6.1179   -4.7549 H        1 ZINC000019594594    0.1300
49     H49     2.5662   -3.6818   -4.4628 H        1 ZINC000019594594    0.1400
@<TRIPOS>BOND
1     1     2     1
2     1     23    1
3     1     24    1
4     1     25    1
5     2     3     1
6     2     26    1
7     2     27    1
8     3     4     1
9     3     28    1
10    3     29    1
11    4     5     1
12    4     30    1
13    4     31    1
14    5     6     1
15    6     22    ar
16    6     7     ar
17    7     8     ar
18    7     32    1
19    8     9     ar
20    8     33    1
21    9     10    1
22    9     21    ar
23    10    11    1
24    11    12    1
25    11    34    1
26    11    35    1
27    12    13    1
28    12    36    1
29    12    37    1
30    13    14    1
31    13    38    1
32    13    39    1
33    14    15    1
34    14    20    1
35    14    16    1
36    16    17    1
37    16    40    1
38    16    41    1
39    17    18    1
40    17    42    1
41    17    43    1
42    18    19    1
43    19    20    1
44    19    44    1
45    19    45    1
46    20    46    1
47    20    47    1
48    21    22    ar
49    21    48    1
50    22    49    1
@<TRIPOS>SUBSTRUCTURE
1   ZINC000019594594 1     RESIDUE    1   A     ZIN   1
