@<TRIPOS>MOLECULE
ZINC000004097404
98    103   1     0     0
SMALL
USER_CHARGES
@<TRIPOS>ATOM
1      C1      0.2208    1.5252   -1.6058 C.3      1 ZINC000004097404   -0.1600
2      C2      0.1720    0.0197   -1.5613 C.2      1 ZINC000004097404    0.4500
3      O3      1.1331   -0.6264   -1.9058 O.2      1 ZINC000004097404   -0.4700
4      O4     -0.9392   -0.6036   -1.1388 O.3      1 ZINC000004097404   -0.3600
5      C5     -0.8909   -2.0524   -1.0547 C.3      1 ZINC000004097404    0.0800
6      H6      0.0460   -2.4232   -1.4702 H        1 ZINC000004097404    0.1300
7      C7     -1.0437   -2.5100    0.4174 C.3      1 ZINC000004097404    0.0200
8      H8     -0.1515   -3.0490    0.7361 H        1 ZINC000004097404    0.1500
9      N9     -1.2669   -1.3468    1.2864 N.4      1 ZINC000004097404   -0.2500
10     C10    -1.4143   -1.7974    2.6768 C.3      1 ZINC000004097404   -0.0600
11     C11    -0.1187   -0.4376    1.1890 C.3      1 ZINC000004097404   -0.0400
12     C12    -0.3089    0.7354    2.1530 C.3      1 ZINC000004097404   -0.1500
13     C13    -1.5908    1.4883    1.7855 C.3      1 ZINC000004097404   -0.1400
14     C14    -2.7711    0.5130    1.8182 C.3      1 ZINC000004097404   -0.1500
15     C15    -2.4896   -0.6518    0.8666 C.3      1 ZINC000004097404   -0.0400
16     C16    -2.2782   -3.4517    0.4575 C.3      1 ZINC000004097404   -0.1400
17     C17    -2.3694   -3.9587   -0.9858 C.3      1 ZINC000004097404   -0.0800
18     H18    -1.5997   -4.7070   -1.1745 H        1 ZINC000004097404    0.1000
19     C19    -3.7270   -4.4772   -1.4215 C.3      1 ZINC000004097404   -0.0700
20     H20    -4.4764   -3.6951   -1.2997 H        1 ZINC000004097404    0.0900
21     C21    -4.1190   -5.7020   -0.5937 C.3      1 ZINC000004097404   -0.1200
22     C22    -5.4647   -6.2397   -1.0848 C.3      1 ZINC000004097404   -0.1200
23     C23    -5.3500   -6.6375   -2.5576 C.3      1 ZINC000004097404   -0.0800
24     H24    -4.5903   -7.4115   -2.6663 H        1 ZINC000004097404    0.1000
25     C25    -6.6964   -7.1726   -3.0486 C.3      1 ZINC000004097404   -0.1500
26     C26    -6.5800   -7.5721   -4.5210 C.3      1 ZINC000004097404    0.0700
27     H27    -7.5390   -7.9541   -4.8708 H        1 ZINC000004097404    0.1100
28     O28    -5.5669   -8.6023   -4.6645 O.3      1 ZINC000004097404   -0.3400
29     C29    -5.9752   -9.8769   -4.5622 C.2      1 ZINC000004097404    0.4600
30     C30    -4.9801  -11.0002   -4.7003 C.3      1 ZINC000004097404   -0.1500
31     O31    -7.1405  -10.1236   -4.3594 O.2      1 ZINC000004097404   -0.5000
32     C32    -6.1849   -6.3487   -5.3506 C.3      1 ZINC000004097404    0.0300
33     H33    -6.1030   -6.6322   -6.3999 H        1 ZINC000004097404    0.1500
34     N34    -7.2090   -5.3058   -5.2037 N.4      1 ZINC000004097404   -0.3900
35     H35    -7.2887   -5.0487   -4.2312 H        1 ZINC000004097404    0.4200
36     C36    -8.4993   -5.8187   -5.6799 C.3      1 ZINC000004097404   -0.0200
37     C37    -9.5859   -4.7652   -5.4542 C.3      1 ZINC000004097404   -0.1400
38     C38    -9.2241   -3.4931   -6.2263 C.3      1 ZINC000004097404   -0.1400
39     C39    -7.8433   -3.0088   -5.7744 C.3      1 ZINC000004097404   -0.1500
40     C40    -6.8222   -4.1280   -5.9896 C.3      1 ZINC000004097404   -0.0200
41     C41    -4.8381   -5.8136   -4.8604 C.3      1 ZINC000004097404   -0.1300
42     C42    -4.9539   -5.4145   -3.3877 C.3      1 ZINC000004097404   -0.0600
43     C43    -6.0174   -4.3251   -3.2359 C.3      1 ZINC000004097404   -0.2200
44     C44    -3.6126   -4.8602   -2.9052 C.3      1 ZINC000004097404   -0.0700
45     H45    -2.8569   -5.6408   -2.9935 H        1 ZINC000004097404    0.0800
46     C46    -3.1973   -3.6728   -3.7670 C.3      1 ZINC000004097404   -0.1200
47     C47    -1.8956   -3.0355   -3.2524 C.3      1 ZINC000004097404   -0.1000
48     C48    -2.0760   -2.6644   -1.7943 C.3      1 ZINC000004097404   -0.0700
49     C49    -3.3052   -1.7670   -1.6374 C.3      1 ZINC000004097404   -0.1700
50     H50     1.2220    1.8480   -1.8914 H        1 ZINC000004097404    0.1200
51     H51    -0.5010    1.8907   -2.3363 H        1 ZINC000004097404    0.1200
52     H52    -0.0233    1.9259   -0.6220 H        1 ZINC000004097404    0.1000
53     H53    -0.4842   -2.2577    3.0102 H        1 ZINC000004097404    0.1200
54     H54    -1.6453   -0.9430    3.3130 H        1 ZINC000004097404    0.1300
55     H55    -2.2228   -2.5258    2.7389 H        1 ZINC000004097404    0.1200
56     H56     0.7933   -0.9757    1.4476 H        1 ZINC000004097404    0.1200
57     H57    -0.0401   -0.0603    0.1694 H        1 ZINC000004097404    0.1400
58     H58    -0.3873    0.3592    3.1730 H        1 ZINC000004097404    0.0900
59     H59     0.5438    1.4102    2.0778 H        1 ZINC000004097404    0.1100
60     H60    -1.7609    2.2905    2.5036 H        1 ZINC000004097404    0.1000
61     H61    -1.4926    1.9083    0.7845 H        1 ZINC000004097404    0.0800
62     H62    -2.9006    0.1322    2.8313 H        1 ZINC000004097404    0.0900
63     H63    -3.6783    1.0289    1.5037 H        1 ZINC000004097404    0.1100
64     H64    -2.3605   -0.2699   -0.1461 H        1 ZINC000004097404    0.1600
65     H65    -3.3281   -1.3479    0.8873 H        1 ZINC000004097404    0.1300
66     H66    -2.1100   -4.2790    1.1470 H        1 ZINC000004097404    0.1100
67     H67    -3.1769   -2.8981    0.7294 H        1 ZINC000004097404    0.1000
68     H68    -3.3573   -6.4738   -0.7037 H        1 ZINC000004097404    0.0700
69     H69    -4.2016   -5.4199    0.4559 H        1 ZINC000004097404    0.0700
70     H70    -5.7448   -7.1118   -0.4939 H        1 ZINC000004097404    0.0700
71     H71    -6.2261   -5.4674   -0.9755 H        1 ZINC000004097404    0.0700
72     H72    -6.9788   -8.0435   -2.4571 H        1 ZINC000004097404    0.1000
73     H73    -7.4561   -6.3985   -2.9411 H        1 ZINC000004097404    0.0700
74     H74    -4.5695  -11.2444   -3.7205 H        1 ZINC000004097404    0.1100
75     H75    -5.4774  -11.8772   -5.1146 H        1 ZINC000004097404    0.1100
76     H76    -4.1737  -10.6916   -5.3655 H        1 ZINC000004097404    0.1000
77     H77    -8.4292   -6.0457   -6.7437 H        1 ZINC000004097404    0.1300
78     H78    -8.7538   -6.7258   -5.1317 H        1 ZINC000004097404    0.1300
79     H79   -10.5427   -5.1472   -5.8101 H        1 ZINC000004097404    0.1200
80     H80    -9.6569   -4.5377   -4.3906 H        1 ZINC000004097404    0.0800
81     H81    -9.2030   -3.7087   -7.2946 H        1 ZINC000004097404    0.0900
82     H82    -9.9657   -2.7205   -6.0237 H        1 ZINC000004097404    0.1000
83     H83    -7.5546   -2.1354   -6.3590 H        1 ZINC000004097404    0.1200
84     H84    -7.8782   -2.7448   -4.7174 H        1 ZINC000004097404    0.0900
85     H85    -5.8375   -3.7874   -5.6693 H        1 ZINC000004097404    0.1400
86     H86    -6.7887   -4.3903   -7.0470 H        1 ZINC000004097404    0.1300
87     H87    -4.0783   -6.5874   -4.9695 H        1 ZINC000004097404    0.1200
88     H88    -4.5565   -4.9423   -5.4517 H        1 ZINC000004097404    0.1000
89     H89    -6.9588   -4.7774   -2.9240 H        1 ZINC000004097404    0.0700
90     H90    -5.6943   -3.6041   -2.4851 H        1 ZINC000004097404    0.1000
91     H91    -6.1567   -3.8178   -4.1906 H        1 ZINC000004097404    0.0800
92     H92    -3.0479   -4.0112   -4.7923 H        1 ZINC000004097404    0.0800
93     H93    -3.9909   -2.9257   -3.7511 H        1 ZINC000004097404    0.0700
94     H94    -1.0824   -3.7594   -3.3046 H        1 ZINC000004097404    0.0700
95     H95    -1.6508   -2.1577   -3.8505 H        1 ZINC000004097404    0.0800
96     H96    -4.1120   -2.1425   -2.2669 H        1 ZINC000004097404    0.0800
97     H97    -3.6261   -1.7692   -0.5957 H        1 ZINC000004097404    0.0600
98     H98    -3.0533   -0.7500   -1.9379 H        1 ZINC000004097404    0.0700
@<TRIPOS>BOND
1     1     2     1
2     1     50    1
3     1     51    1
4     1     52    1
5     2     3     2
6     2     4     1
7     4     5     1
8     5     6     1
9     5     48    1
10    5     7     1
11    7     8     1
12    7     9     1
13    7     16    1
14    9     15    1
15    9     10    1
16    9     11    1
17    10    53    1
18    10    54    1
19    10    55    1
20    11    12    1
21    11    56    1
22    11    57    1
23    12    13    1
24    12    58    1
25    12    59    1
26    13    14    1
27    13    60    1
28    13    61    1
29    14    15    1
30    14    62    1
31    14    63    1
32    15    64    1
33    15    65    1
34    16    17    1
35    16    66    1
36    16    67    1
37    17    18    1
38    17    48    1
39    17    19    1
40    19    20    1
41    19    44    1
42    19    21    1
43    21    22    1
44    21    68    1
45    21    69    1
46    22    23    1
47    22    70    1
48    22    71    1
49    23    24    1
50    23    42    1
51    23    25    1
52    25    26    1
53    25    72    1
54    25    73    1
55    26    27    1
56    26    28    1
57    26    32    1
58    28    29    1
59    29    30    1
60    29    31    2
61    30    74    1
62    30    75    1
63    30    76    1
64    32    33    1
65    32    34    1
66    32    41    1
67    34    35    1
68    34    40    1
69    34    36    1
70    36    37    1
71    36    77    1
72    36    78    1
73    37    38    1
74    37    79    1
75    37    80    1
76    38    39    1
77    38    81    1
78    38    82    1
79    39    40    1
80    39    83    1
81    39    84    1
82    40    85    1
83    40    86    1
84    41    42    1
85    41    87    1
86    41    88    1
87    42    43    1
88    42    44    1
89    43    89    1
90    43    90    1
91    43    91    1
92    44    45    1
93    44    46    1
94    46    47    1
95    46    92    1
96    46    93    1
97    47    48    1
98    47    94    1
99    47    95    1
100   48    49    1
101   49    96    1
102   49    97    1
103   49    98    1
@<TRIPOS>SUBSTRUCTURE
1   ZINC000004097404 1     RESIDUE    1   A     ZIN   1
