@<TRIPOS>MOLECULE
ZINC000003589203
18   17    0    0    0
SMALL
USER_CHARGES
NO_NAME
@<TRIPOS>ATOM
1 C1       -0.0184     1.5028     0.0103 C.3    1 <0>      -0.1700
2 C2        0.0021    -0.0041     0.0020 C.2    1 <0>       0.5100
3 O3        0.0203    -0.6160     1.0489 O.2    1 <0>      -0.5600
4 N4        0.0001    -0.6716    -1.1688 N.am   1 <0>      -0.6900
5 C5        0.0199    -2.1365    -1.1769 C.3    1 <0>       0.0900
6 H6       -0.5565    -2.5123    -0.3315 H      1 <0>       0.0900
7 C7       -0.5952    -2.6477    -2.4812 C.3    1 <0>      -0.0500
8 S8       -2.3083    -2.0655    -2.6108 S.3    1 <0>      -0.2600
9 C9        1.4431    -2.6201    -1.0692 C.2    1 <0>       0.5000
10 O10       2.3562    -1.8158    -0.9928 O.co2  1 <0>      -0.6800
11 O11       1.6815    -3.8158    -1.0585 O.co2  1 <0>      -0.6900
12 H12       1.0042     1.8801     0.0026 H      1 <0>       0.0900
13 H13      -0.5455     1.8639    -0.8728 H      1 <0>       0.0700
14 H14      -0.5286     1.8543     0.9071 H      1 <0>       0.0800
15 H15      -0.0145    -0.1822    -2.0061 H      1 <0>       0.3900
16 H16      -0.0188    -2.2718    -3.3265 H      1 <0>       0.0800
17 H17      -0.5804    -3.7376    -2.4872 H      1 <0>       0.1000
18 H18      -2.7153    -2.5815    -3.7842 H      1 <0>       0.0700
@<TRIPOS>BOND
1    1    2 1
2    1   12 1
3    1   13 1
4    1   14 1
5    2    3 2
6    2    4 am
7    4    5 1
8    4   15 1
9    5    6 1
10    5    7 1
11    5    9 1
12    7    8 1
13    7   16 1
14    7   17 1
15    8   18 1
16    9   10 ar
17    9   11 ar
