@<TRIPOS>MOLECULE
ZINC000003792789
49   49    0    0    0
SMALL
USER_CHARGES
NO_NAME
@<TRIPOS>ATOM
1 C1        1.0402     1.6844     0.8669 C.3    1 <0>      -0.1100
2 C2        1.2454     0.1939     0.9515 C.2    1 <0>      -0.1500
3 C3        1.2283    -0.4481     2.2021 C.2    1 <0>      -0.0800
4 C4        1.0266     0.2755     3.3347 C.2    1 <0>      -0.1500
5 C5        0.8868    -0.3841     4.5817 C.2    1 <0>      -0.0800
6 C6       -0.0748    -1.2834     4.7076 C.2    1 <0>      -0.1200
7 C7       -0.9537    -1.5562     3.5142 C.3    1 <0>      -0.1200
8 C8       -0.3396    -2.0479     5.9719 C.3    1 <0>      -0.0800
9 C9        0.8727    -1.9644     6.9015 C.3    1 <0>      -0.1200
10 C10       1.2866    -0.4935     7.0318 C.3    1 <0>      -0.1100
11 C11       1.8422    -0.0268     5.6828 C.3    1 <0>      -0.0200
12 C12       3.1938    -0.6984     5.4313 C.3    1 <0>      -0.1400
13 C13       2.0305     1.4913     5.7097 C.3    1 <0>      -0.1400
14 C14       1.4480    -0.5328    -0.1860 C.2    1 <0>      -0.0600
15 C15       1.4651     0.1074    -1.4330 C.2    1 <0>      -0.2000
16 C16       1.6693    -0.6256    -2.5803 C.2    1 <0>      -0.0600
17 C17       1.6864     0.0140    -3.8262 C.2    1 <0>      -0.0900
18 C18       1.5882     1.5158    -3.9036 C.3    1 <0>      -0.1200
19 C19       1.7930    -0.7291    -4.9800 C.2    1 <0>      -0.1300
20 C20       1.6234    -2.1223    -4.9359 C.2    1 <0>       0.4400
21 O21       1.2349    -2.7114    -3.8040 O.co2  1 <0>      -0.6900
22 O22       1.8507    -2.8567    -6.0260 O.co2  1 <0>      -0.7000
23 H23       2.0043     2.1884     0.9346 H      1 <0>       0.0600
24 H24       0.5664     1.9326    -0.0829 H      1 <0>       0.0600
25 H25       0.4014     2.0104     1.6877 H      1 <0>       0.0600
26 H26       1.3753    -1.5163     2.2627 H      1 <0>       0.1100
27 H27       0.9728     1.3530     3.2847 H      1 <0>       0.1100
28 H28      -0.5235    -2.3649     2.9234 H      1 <0>       0.0600
29 H29      -1.9486    -1.8440     3.8540 H      1 <0>       0.0500
30 H30      -1.0248    -0.6571     2.9022 H      1 <0>       0.0700
31 H31      -1.2099    -1.6254     6.4741 H      1 <0>       0.0700
32 H32      -0.5369    -3.0919     5.7282 H      1 <0>       0.0700
33 H33       0.6094    -2.3589     7.8829 H      1 <0>       0.0600
34 H34       1.6968    -2.5408     6.4812 H      1 <0>       0.0700
35 H35       0.4191     0.1083     7.3027 H      1 <0>       0.0600
36 H36       2.0566    -0.3963     7.7971 H      1 <0>       0.0600
37 H37       3.0648    -1.7806     5.4174 H      1 <0>       0.0600
38 H38       3.5909    -0.3675     4.4717 H      1 <0>       0.0600
39 H39       3.8885    -0.4254     6.2256 H      1 <0>       0.0500
40 H40       2.6539     1.7651     6.5608 H      1 <0>       0.0500
41 H41       2.5131     1.8139     4.7871 H      1 <0>       0.0600
42 H42       1.0586     1.9764     5.8002 H      1 <0>       0.0500
43 H43       1.5950    -1.6010    -0.1253 H      1 <0>       0.1100
44 H44       1.3180     1.1756    -1.4937 H      1 <0>       0.1100
45 H45       1.8164    -1.6938    -2.5196 H      1 <0>       0.1800
46 H46       2.5885     1.9475    -3.8725 H      1 <0>       0.0600
47 H47       1.0985     1.8004    -4.8349 H      1 <0>       0.0600
48 H48       1.0063     1.8859    -3.0594 H      1 <0>       0.0700
49 H49       2.0072    -0.2406    -5.9191 H      1 <0>       0.1100
@<TRIPOS>BOND
1    1    2 1
2    1   23 1
3    1   24 1
4    1   25 1
5    2    3 1
6    2   14 2
7    3    4 2
8    3   26 1
9    4    5 1
10    4   27 1
11    5   11 1
12    5    6 2
13    6    7 1
14    6    8 1
15    7   28 1
16    7   29 1
17    7   30 1
18    8    9 1
19    8   31 1
20    8   32 1
21    9   10 1
22    9   33 1
23    9   34 1
24   10   11 1
25   10   35 1
26   10   36 1
27   11   12 1
28   11   13 1
29   12   37 1
30   12   38 1
31   12   39 1
32   13   40 1
33   13   41 1
34   13   42 1
35   14   15 1
36   14   43 1
37   15   16 2
38   15   44 1
39   16   17 1
40   16   45 1
41   17   18 1
42   17   19 2
43   18   46 1
44   18   47 1
45   18   48 1
46   19   20 1
47   19   49 1
48   20   21 ar
49   20   22 ar
