@<TRIPOS>MOLECULE
ZINC000003872520
21   21    0    0    0
SMALL
USER_CHARGES
NO_NAME
@<TRIPOS>ATOM
1 C1       -0.0187     1.5258     0.0104 C.3    1 <0>      -0.1500
2 C2        0.0021    -0.0041     0.0020 C.3    1 <0>      -0.0800
3 C3        0.7309    -0.5033     1.2229 C.ar   1 <0>       0.1400
4 C4        0.1072    -1.3974     2.0701 C.ar   1 <0>      -0.1000
5 C5        0.7950    -1.8538     3.2002 C.ar   1 <0>      -0.0600
6 C6        0.1681    -2.8119     4.1359 C.2    1 <0>       0.3900
7 N7        0.4258    -2.7309     5.4563 N.am   1 <0>      -0.7600
8 S8       -0.8849    -4.0240     3.5420 S.2    1 <0>      -0.5200
9 C9        2.0924    -1.3785     3.4196 C.ar   1 <0>      -0.1500
10 C10       2.6390    -0.4848     2.5197 C.ar   1 <0>       0.1100
11 N11       1.9577    -0.0843     1.4645 N.ar   1 <0>      -0.4600
12 H12       1.0039     1.9031     0.0027 H      1 <0>       0.0700
13 H13      -0.5459     1.8868    -0.8726 H      1 <0>       0.0600
14 H14      -0.5289     1.8773     0.9072 H      1 <0>       0.0500
15 H15      -1.0205    -0.3814     0.0098 H      1 <0>       0.0800
16 H16       0.5123    -0.3556    -0.8948 H      1 <0>       0.0900
17 H17      -0.8963    -1.7391     1.8639 H      1 <0>       0.1600
18 H18       1.0224    -2.0441     5.7928 H      1 <0>       0.4100
19 H19       0.0146    -3.3594     6.0702 H      1 <0>       0.4300
20 H20       2.6578    -1.7051     4.2799 H      1 <0>       0.1400
21 H21       3.6399    -0.1121     2.6803 H      1 <0>       0.1700
@<TRIPOS>BOND
1    1    2 1
2    1   12 1
3    1   13 1
4    1   14 1
5    2    3 1
6    2   15 1
7    2   16 1
8    3   11 ar
9    3    4 ar
10    4    5 ar
11    4   17 1
12    5    6 1
13    5    9 ar
14    6    7 am
15    6    8 2
16    7   18 1
17    7   19 1
18    9   10 ar
19    9   20 1
20   10   11 ar
21   10   21 1
