@<TRIPOS>MOLECULE
ZINC000000056556
41    42    1     0     0
SMALL
USER_CHARGES
@<TRIPOS>ATOM
1      C1     -0.0187    1.5258    0.0104 C.3      1 ZINC000000056556   -0.1900
2      C2      0.0021   -0.0041    0.0020 C.3      1 ZINC000000056556    0.0200
3      C3      0.7421   -0.5109    1.2415 C.3      1 ZINC000000056556   -0.1900
4      N4     -1.3761   -0.5125    0.0124 N.4      1 ZINC000000056556   -0.5000
5      H5     -1.8225   -0.2564    0.8803 H        1 ZINC000000056556    0.4300
6      H6     -1.8879   -0.1129   -0.7598 H        1 ZINC000000056556    0.4300
7      C7     -1.3591   -1.9758   -0.1163 C.3      1 ZINC000000056556   -0.0500
8      C8     -2.7945   -2.5054   -0.1054 C.3      1 ZINC000000056556    0.0900
9      H9     -3.3474   -2.0736   -0.9397 H        1 ZINC000000056556    0.1400
10     O10    -3.4268   -2.1426    1.1237 O.3      1 ZINC000000056556   -0.5400
11     C11    -2.7769   -4.0294   -0.2395 C.3      1 ZINC000000056556    0.0300
12     O12    -4.1170   -4.5137   -0.3465 O.3      1 ZINC000000056556   -0.3000
13     C13    -4.2792   -5.8561   -0.4731 C.ar     1 ZINC000000056556    0.1400
14     C14    -5.5715   -6.4069   -0.5895 C.ar     1 ZINC000000056556   -0.0700
15     C15    -6.7153   -5.5924   -0.5782 C.ar     1 ZINC000000056556   -0.0900
16     C16    -7.9475   -6.1597   -0.6933 C.ar     1 ZINC000000056556   -0.1200
17     C17    -8.0926   -7.5396   -0.8226 C.ar     1 ZINC000000056556   -0.1000
18     C18    -7.0067   -8.3599   -0.8371 C.ar     1 ZINC000000056556   -0.1100
19     C19    -5.7184   -7.8101   -0.7211 C.ar     1 ZINC000000056556   -0.0200
20     C20    -4.5738   -8.6252   -0.7326 C.ar     1 ZINC000000056556   -0.1300
21     C21    -3.3401   -8.0600   -0.6184 C.ar     1 ZINC000000056556   -0.0800
22     C22    -3.1904   -6.6817   -0.4941 C.ar     1 ZINC000000056556   -0.2200
23     H23     1.0039    1.9031    0.0027 H        1 ZINC000000056556    0.1100
24     H24    -0.5459    1.8868   -0.8726 H        1 ZINC000000056556    0.0800
25     H25    -0.5289    1.8773    0.9072 H        1 ZINC000000056556    0.0800
26     H26     0.5123   -0.3556   -0.8948 H        1 ZINC000000056556    0.1400
27     H27     0.2319   -0.1594    2.1383 H        1 ZINC000000056556    0.0800
28     H28     0.7568   -1.6008    1.2356 H        1 ZINC000000056556    0.0800
29     H29     1.7647   -0.1336    1.2338 H        1 ZINC000000056556    0.1100
30     H30    -0.8769   -2.2525   -1.0538 H        1 ZINC000000056556    0.1500
31     H31    -0.8062   -2.4075    0.7180 H        1 ZINC000000056556    0.1400
32     H32    -2.9873   -2.4932    1.9105 H        1 ZINC000000056556    0.3900
33     H33    -2.2171   -4.3091   -1.1320 H        1 ZINC000000056556    0.0800
34     H34    -2.3018   -4.4659    0.6390 H        1 ZINC000000056556    0.0800
35     H35    -6.6180   -4.5215   -0.4783 H        1 ZINC000000056556    0.1300
36     H36    -8.8256   -5.5310   -0.6839 H        1 ZINC000000056556    0.1300
37     H37    -9.0815   -7.9645   -0.9123 H        1 ZINC000000056556    0.1300
38     H38    -7.1342   -9.4277   -0.9373 H        1 ZINC000000056556    0.1300
39     H39    -4.6721   -9.6961   -0.8313 H        1 ZINC000000056556    0.1300
40     H40    -2.4637   -8.6910   -0.6275 H        1 ZINC000000056556    0.1300
41     H41    -2.2003   -6.2596   -0.4051 H        1 ZINC000000056556    0.1200
@<TRIPOS>BOND
1     1     2     1
2     1     23    1
3     1     24    1
4     1     25    1
5     2     3     1
6     2     4     1
7     2     26    1
8     3     27    1
9     3     28    1
10    3     29    1
11    4     5     1
12    4     6     1
13    4     7     1
14    7     8     1
15    7     30    1
16    7     31    1
17    8     9     1
18    8     10    1
19    8     11    1
20    10    32    1
21    11    12    1
22    11    33    1
23    11    34    1
24    12    13    1
25    13    22    ar
26    13    14    ar
27    14    19    ar
28    14    15    ar
29    15    16    ar
30    15    35    1
31    16    17    ar
32    16    36    1
33    17    18    ar
34    17    37    1
35    18    19    ar
36    18    38    1
37    19    20    ar
38    20    21    ar
39    20    39    1
40    21    22    ar
41    21    40    1
42    22    41    1
@<TRIPOS>SUBSTRUCTURE
1   ZINC000000056556 1     RESIDUE    1   A     ZIN   1
