@<TRIPOS>MOLECULE
ZINC000000001261
42    45    1     0     0
SMALL
USER_CHARGES
@<TRIPOS>ATOM
1      Cl1     0.8956    0.0811   -0.4089 Cl       1 ZINC000000001261   -0.0500
2      C2      0.6116    1.7890   -0.2815 C.ar     1 ZINC000000001261   -0.0200
3      C3     -0.6838    2.2745   -0.3341 C.ar     1 ZINC000000001261   -0.1100
4      C4     -0.9161    3.6344   -0.2384 C.ar     1 ZINC000000001261   -0.0900
5      C5      0.1675    4.4947   -0.0870 C.ar     1 ZINC000000001261   -0.0600
6      C6      1.4532    4.0152   -0.0259 C.ar     1 ZINC000000001261   -0.0500
7      C7      1.6827    2.6528   -0.1225 C.ar     1 ZINC000000001261   -0.1000
8      C8      2.6009    4.9586    0.1641 C.3      1 ZINC000000001261   -0.0800
9      C9      2.6667    5.5374    1.5517 C.3      1 ZINC000000001261   -0.0800
10     C10     1.5543    6.4893    1.9018 C.ar     1 ZINC000000001261   -0.1000
11     C11     1.7754    7.2278    3.0717 C.ar     1 ZINC000000001261   -0.0800
12     C12     0.8383    8.1519    3.4894 C.ar     1 ZINC000000001261   -0.1600
13     C13    -0.3076    8.3355    2.7373 C.ar     1 ZINC000000001261    0.1100
14     N14    -0.4990    7.6286    1.6485 N.ar     1 ZINC000000001261   -0.4800
15     C15     0.3761    6.7127    1.2168 C.ar     1 ZINC000000001261    0.1400
16     C16    -0.0192    5.9599    0.0065 C.2      1 ZINC000000001261    0.0200
17     C17    -0.5574    6.6184   -1.0272 C.2      1 ZINC000000001261   -0.1300
18     C18    -0.6407    8.1308   -1.0358 C.3      1 ZINC000000001261   -0.0900
19     C19    -0.1141    8.6314   -2.3855 C.3      1 ZINC000000001261   -0.0100
20     N20    -0.8498    7.9741   -3.4722 N.4      1 ZINC000000001261   -0.5000
21     H21    -1.8405    8.1034   -3.3313 H        1 ZINC000000001261    0.4300
22     H22    -0.5811    8.3846   -4.3539 H        1 ZINC000000001261    0.4300
23     C23    -0.5450    6.5385   -3.4944 C.3      1 ZINC000000001261    0.0000
24     C24    -1.0990    5.8778   -2.2324 C.3      1 ZINC000000001261   -0.1100
25     H25    -1.5124    1.5916   -0.4501 H        1 ZINC000000001261    0.1400
26     H26    -1.9229    4.0229   -0.2809 H        1 ZINC000000001261    0.1400
27     H27     2.6908    2.2672   -0.0827 H        1 ZINC000000001261    0.1400
28     H28     3.5299    4.4254   -0.0376 H        1 ZINC000000001261    0.0900
29     H29     2.5057    5.7749   -0.5519 H        1 ZINC000000001261    0.0700
30     H30     2.6526    4.7153    2.2673 H        1 ZINC000000001261    0.0900
31     H31     3.6151    6.0637    1.6592 H        1 ZINC000000001261    0.0900
32     H32     2.6771    7.0744    3.6460 H        1 ZINC000000001261    0.1400
33     H33     0.9979    8.7235    4.3917 H        1 ZINC000000001261    0.1400
34     H34    -1.0452    9.0614    3.0461 H        1 ZINC000000001261    0.1700
35     H35    -1.6771    8.4428   -0.9067 H        1 ZINC000000001261    0.1000
36     H36    -0.0306    8.5373   -0.2292 H        1 ZINC000000001261    0.1200
37     H37    -0.2542    9.7103   -2.4526 H        1 ZINC000000001261    0.1300
38     H38     0.9469    8.3968   -2.4712 H        1 ZINC000000001261    0.1300
39     H39    -1.0008    6.0840   -4.3740 H        1 ZINC000000001261    0.1400
40     H40     0.5351    6.3970   -3.5308 H        1 ZINC000000001261    0.1300
41     H41    -0.7864    4.8342   -2.1962 H        1 ZINC000000001261    0.1200
42     H42    -2.1874    5.9366   -2.2340 H        1 ZINC000000001261    0.1000
@<TRIPOS>BOND
1     1     2     1
2     2     7     ar
3     2     3     ar
4     3     4     ar
5     3     25    1
6     4     5     ar
7     4     26    1
8     5     16    1
9     5     6     ar
10    6     7     ar
11    6     8     1
12    7     27    1
13    8     9     1
14    8     28    1
15    8     29    1
16    9     10    1
17    9     30    1
18    9     31    1
19    10    15    ar
20    10    11    ar
21    11    12    ar
22    11    32    1
23    12    13    ar
24    12    33    1
25    13    14    ar
26    13    34    1
27    14    15    ar
28    15    16    1
29    16    17    2
30    17    24    1
31    17    18    1
32    18    19    1
33    18    35    1
34    18    36    1
35    19    20    1
36    19    37    1
37    19    38    1
38    20    21    1
39    20    22    1
40    20    23    1
41    23    24    1
42    23    39    1
43    23    40    1
44    24    41    1
45    24    42    1
@<TRIPOS>SUBSTRUCTURE
1   ZINC000000001261 1     RESIDUE    1   A     ZIN   1
