@<TRIPOS>MOLECULE
ZINC000026011099
79    83    1     0     0
SMALL
USER_CHARGES
@<TRIPOS>ATOM
1      C1      0.7464    1.4983   -0.1422 C.3      1 ZINC000026011099    0.0400
2      O2      0.2200    0.1451   -0.1540 O.3      1 ZINC000026011099   -0.3600
3      C3      0.6836   -0.6808   -1.1051 C.2      1 ZINC000026011099    0.4600
4      O4      1.5700   -0.3172   -1.8413 O.2      1 ZINC000026011099   -0.4800
5      C5      0.0984   -2.0615   -1.2548 C.3      1 ZINC000026011099   -0.1000
6      C6      0.6824   -2.7306   -2.5007 C.3      1 ZINC000026011099    0.1700
7      O7      2.1069   -2.7724   -2.3955 O.3      1 ZINC000026011099   -0.5100
8      C8      0.2861   -1.9299   -3.7428 C.3      1 ZINC000026011099   -0.1500
9      C9      0.8761   -2.5949   -4.9879 C.3      1 ZINC000026011099   -0.1200
10     C10     0.5517   -1.7484   -6.2204 C.3      1 ZINC000026011099   -0.1400
11     C11     1.0273   -2.4769   -7.4790 C.3      1 ZINC000026011099    0.1300
12     C12     0.6665   -1.6493   -8.7143 C.3      1 ZINC000026011099   -0.1800
13     C13     2.5443   -2.6653   -7.4167 C.3      1 ZINC000026011099   -0.1400
14     O14     0.3915   -3.7541   -7.5591 O.3      1 ZINC000026011099   -0.5600
15     C15     0.1457   -4.1341   -2.6154 C.2      1 ZINC000026011099    0.4400
16     O16    -0.8227   -4.3563   -3.3029 O.2      1 ZINC000026011099   -0.4700
17     O17     0.7436   -5.1374   -1.9537 O.3      1 ZINC000026011099   -0.3100
18     C18     0.1761   -6.4548   -2.1097 C.3      1 ZINC000026011099    0.1200
19     H19    -0.2989   -6.5261   -3.1052 H        1 ZINC000026011099    0.1300
20     C20    -0.8813   -6.7035   -1.0434 C.2      1 ZINC000026011099    0.1300
21     O21    -1.6657   -5.7451   -0.4923 O.3      1 ZINC000026011099   -0.2900
22     C22    -2.6059   -6.1664    0.4979 C.3      1 ZINC000026011099    0.0200
23     C23    -0.9113   -7.9862   -0.7428 C.2      1 ZINC000026011099   -0.3300
24     C24     0.1307   -8.7098   -1.5733 C.3      1 ZINC000026011099    0.1000
25     C25    -0.5679   -9.1797   -2.8760 C.3      1 ZINC000026011099   -0.1400
26     C26    -0.7413  -10.7058   -2.7060 C.3      1 ZINC000026011099   -0.1400
27     C27    -0.3667  -10.9678   -1.2273 C.3      1 ZINC000026011099    0.0000
28     N28     0.6223   -9.8992   -0.9324 N.4      1 ZINC000026011099   -0.3600
29     H29     1.4902  -10.1541   -1.3642 H        1 ZINC000026011099    0.4200
30     C30     0.8380   -9.7588    0.4795 C.3      1 ZINC000026011099   -0.0100
31     C31     2.1988   -9.2416    0.8109 C.3      1 ZINC000026011099   -0.1000
32     C32     2.5616   -7.8973    0.2576 C.ar     1 ZINC000026011099   -0.0700
33     C33     3.4310   -7.2490    1.1736 C.ar     1 ZINC000026011099   -0.1300
34     C34     3.9566   -6.0164    0.8745 C.ar     1 ZINC000026011099    0.0600
35     C35     3.6768   -5.4321   -0.3713 C.ar     1 ZINC000026011099    0.0500
36     C36     2.8387   -6.0693   -1.2515 C.ar     1 ZINC000026011099   -0.0700
37     C37     2.1940   -7.2805   -0.8938 C.ar     1 ZINC000026011099   -0.0800
38     C38     1.1636   -7.6464   -1.9177 C.3      1 ZINC000026011099   -0.0200
39     H39     1.6579   -7.9081   -2.8680 H        1 ZINC000026011099    0.1400
40     O40     4.3372   -4.2527   -0.4488 O.3      1 ZINC000026011099   -0.2900
41     C41     4.6198   -3.8996    0.9240 C.3      1 ZINC000026011099    0.2100
42     O42     4.7569   -5.1818    1.5760 O.3      1 ZINC000026011099   -0.3000
43     H43     1.8128    1.4714    0.0818 H        1 ZINC000026011099    0.0700
44     H44     0.5916    1.9569   -1.1188 H        1 ZINC000026011099    0.0700
45     H45     0.2298    2.0825    0.6195 H        1 ZINC000026011099    0.1000
46     H46     0.3420   -2.6567   -0.3748 H        1 ZINC000026011099    0.1200
47     H47    -0.9844   -1.9882   -1.3555 H        1 ZINC000026011099    0.1200
48     H48     2.5453   -3.1845   -3.1525 H        1 ZINC000026011099    0.3800
49     H49    -0.8004   -1.9024   -3.8259 H        1 ZINC000026011099    0.0800
50     H50     0.6698   -0.9133   -3.6574 H        1 ZINC000026011099    0.1100
51     H51     1.9575   -2.6771   -4.8780 H        1 ZINC000026011099    0.0600
52     H52     0.4464   -3.5895   -5.1069 H        1 ZINC000026011099    0.0700
53     H53    -0.5250   -1.5885   -6.2782 H        1 ZINC000026011099    0.0700
54     H54     1.0583   -0.7864   -6.1441 H        1 ZINC000026011099    0.0800
55     H55     1.1514   -0.6750   -8.6533 H        1 ZINC000026011099    0.0700
56     H56     1.0053   -2.1683   -9.6110 H        1 ZINC000026011099    0.0700
57     H57    -0.4143   -1.5150   -8.7587 H        1 ZINC000026011099    0.0600
58     H58     2.7925   -3.3490   -6.6049 H        1 ZINC000026011099    0.0600
59     H59     2.8982   -3.0790   -8.3610 H        1 ZINC000026011099    0.0600
60     H60     3.0231   -1.7022   -7.2397 H        1 ZINC000026011099    0.0700
61     H61    -0.5736   -3.7111   -7.6018 H        1 ZINC000026011099    0.3800
62     H62    -3.1679   -5.3037    0.8557 H        1 ZINC000026011099    0.1100
63     H63    -3.2926   -6.8918    0.0616 H        1 ZINC000026011099    0.0600
64     H64    -2.0745   -6.6251    1.3317 H        1 ZINC000026011099    0.0600
65     H65    -1.5724   -8.4518   -0.0249 H        1 ZINC000026011099    0.1600
66     H66    -1.5403   -8.6981   -2.9829 H        1 ZINC000026011099    0.1100
67     H67     0.0559   -8.9650   -3.7441 H        1 ZINC000026011099    0.1100
68     H68    -1.7762  -10.9928   -2.8900 H        1 ZINC000026011099    0.1200
69     H69    -0.0713  -11.2447   -3.3719 H        1 ZINC000026011099    0.1000
70     H70    -1.2404  -10.8669   -0.5857 H        1 ZINC000026011099    0.1300
71     H71     0.0868  -11.9505   -1.1142 H        1 ZINC000026011099    0.1400
72     H72     0.0864   -9.0909    0.8973 H        1 ZINC000026011099    0.1300
73     H73     0.7109  -10.7434    0.9411 H        1 ZINC000026011099    0.1400
74     H74     2.2968   -9.2018    1.9013 H        1 ZINC000026011099    0.1300
75     H75     2.9393   -9.9666    0.4520 H        1 ZINC000026011099    0.1000
76     H76     3.6754   -7.7336    2.1093 H        1 ZINC000026011099    0.1400
77     H77     2.7289   -5.6745   -2.2539 H        1 ZINC000026011099    0.1400
78     H78     5.5433   -3.3301    0.9932 H        1 ZINC000026011099    0.1400
79     H79     3.7868   -3.3427    1.3519 H        1 ZINC000026011099    0.0900
@<TRIPOS>BOND
1     1     2     1
2     1     43    1
3     1     44    1
4     1     45    1
5     2     3     1
6     3     4     2
7     3     5     1
8     5     6     1
9     5     46    1
10    5     47    1
11    6     7     1
12    6     8     1
13    6     15    1
14    7     48    1
15    8     9     1
16    8     49    1
17    8     50    1
18    9     10    1
19    9     51    1
20    9     52    1
21    10    11    1
22    10    53    1
23    10    54    1
24    11    12    1
25    11    13    1
26    11    14    1
27    12    55    1
28    12    56    1
29    12    57    1
30    13    58    1
31    13    59    1
32    13    60    1
33    14    61    1
34    15    16    2
35    15    17    1
36    17    18    1
37    18    19    1
38    18    38    1
39    18    20    1
40    20    21    1
41    20    23    2
42    21    22    1
43    22    62    1
44    22    63    1
45    22    64    1
46    23    24    1
47    23    65    1
48    24    28    1
49    24    38    1
50    24    25    1
51    25    26    1
52    25    66    1
53    25    67    1
54    26    27    1
55    26    68    1
56    26    69    1
57    27    28    1
58    27    70    1
59    27    71    1
60    28    29    1
61    28    30    1
62    30    31    1
63    30    72    1
64    30    73    1
65    31    32    1
66    31    74    1
67    31    75    1
68    32    37    ar
69    32    33    ar
70    33    34    ar
71    33    76    1
72    34    42    1
73    34    35    ar
74    35    36    ar
75    35    40    1
76    36    37    ar
77    36    77    1
78    37    38    1
79    38    39    1
80    40    41    1
81    41    42    1
82    41    78    1
83    41    79    1
@<TRIPOS>SUBSTRUCTURE
1   ZINC000026011099 1     RESIDUE    1   A     ZIN   1
