@<TRIPOS>MOLECULE
ZINC000003978006
46   49    0    0    0
SMALL
NO_CHARGES
@<TRIPOS>ATOM
1 C1            -0.2196     1.4819     0.1599 C.3
2 C2            -0.0834    -0.0164     0.0716 C.2
3 C3            -1.0925    -0.9396     0.1811 C.2
4 C4            -2.5291    -0.7076     0.4072 C.2
5 O5            -3.2594    -0.4545    -0.5319 O.2
6 N6            -3.0346    -0.7756     1.6547 N.am
7 C7            -4.4637    -0.5447     1.8795 C.3
8 H8            -5.0724    -0.7616     1.0017 H
9 C9            -4.7719     0.7929     2.5199 C.2
10 O10           -4.7423     1.9412     2.1307 O.2
11 N11           -5.0966     0.1994     3.7083 N.am
12 C12           -4.9948    -1.1767     3.1693 C.3
13 H13           -5.9316    -1.7260     3.0754 H
14 S14           -3.7266    -2.0000     4.2026 S.3
15 C15           -3.9074    -0.8369     5.6200 C.3
16 C16           -5.0697    -1.2432     6.5282 C.3
17 C17           -2.6036    -0.7180     6.4118 C.3
18 C18           -4.2125     0.4817     4.8430 C.3
19 H19           -3.2772     0.9178     4.4923 H
20 C20           -4.9007     1.4551     5.7650 C.2
21 O21           -4.2410     2.2370     6.4283 O.co2
22 O22           -6.1171     1.4607     5.8476 O.co2
23 C23           -0.3812    -2.2247     0.0156 C.2
24 C24           -0.9645    -3.5876     0.0403 C.ar
25 C25           -1.9665    -3.9371    -0.8648 C.ar
26 Cl26          -2.5342    -2.7770    -2.0248 Cl
27 C27           -2.5059    -5.2086    -0.8366 C.ar
28 C28           -2.0543    -6.1342     0.0866 C.ar
29 C29           -1.0610    -5.7938     0.9868 C.ar
30 C30           -0.5094    -4.5275     0.9651 C.ar
31 Cl31           0.7377    -4.1024     2.0955 Cl
32 N32            0.8747    -1.8995    -0.1583 N.2
33 O33            1.0416    -0.7048    -0.1343 O.3
34 H34            0.7589     1.9440     0.0288 H
35 H35           -0.8944     1.8321    -0.6212 H
36 H36           -0.6217     1.7532     1.1360 H
37 H37           -2.4522    -0.9774     2.4036 H
38 H38           -4.8784    -2.2333     6.9421 H
39 H39           -5.1656    -0.5223     7.3401 H
40 H40           -5.9931    -1.2636     5.9494 H
41 H41           -1.8080    -0.3722     5.7518 H
42 H42           -2.7364    -0.0049     7.2254 H
43 H43           -2.3376    -1.6921     6.8221 H
44 H44           -3.2820    -5.4804    -1.5367 H
45 H45           -2.4794    -7.1268     0.1049 H
46 H46           -0.7129    -6.5210     1.7055 H
@<TRIPOS>BOND
1    1    2 1
2    1   34 1
3    1   35 1
4    1   36 1
5    2   33 1
6    2    3 2
7    3    4 1
8    3   23 1
9    4    5 2
10    4    6 am
11    6    7 1
12    6   37 1
13    7    8 1
14    7   12 1
15    7    9 1
16    9   10 2
17    9   11 am
18   11   18 1
19   11   12 1
20   12   13 1
21   12   14 1
22   14   15 1
23   15   16 1
24   15   17 1
25   15   18 1
26   16   38 1
27   16   39 1
28   16   40 1
29   17   41 1
30   17   42 1
31   17   43 1
32   18   19 1
33   18   20 1
34   20   21 ar
35   20   22 ar
36   23   24 1
37   23   32 2
38   24   30 ar
39   24   25 ar
40   25   26 1
41   25   27 ar
42   27   28 ar
43   27   44 1
44   28   29 ar
45   28   45 1
46   29   30 ar
47   29   46 1
48   30   31 1
49   32   33 1
