@<TRIPOS>MOLECULE
ZINC000003830813
15    14    1     0     0
SMALL
USER_CHARGES
@<TRIPOS>ATOM
1      C1     -0.0187    1.5258    0.0104 C.3      1 ZINC000003830813   -0.0600
2      C2      0.0021   -0.0041    0.0020 C.3      1 ZINC000003830813   -1.0800
3      O3      0.6932   -0.4774    1.1597 O.3      1 ZINC000003830813   -0.5700
4      P4     -1.7082   -0.6351    0.0150 P.3      1 ZINC000003830813    2.2400
5      O5     -2.4014   -0.2374    1.3625 O.co2    1 ZINC000003830813   -1.2200
6      O6     -2.5029   -0.0145   -1.1841 O.co2    1 ZINC000003830813   -1.1900
7      O7     -1.6901   -2.1956   -0.1223 O.co2    1 ZINC000003830813   -1.1800
8      P8      0.8554   -0.5920   -1.4978 P.3      1 ZINC000003830813    2.2400
9      O9      0.0976   -0.0730   -2.7671 O.co2    1 ZINC000003830813   -1.1900
10     O10     2.3251   -0.0497   -1.5090 O.co2    1 ZINC000003830813   -1.2200
11     O11     0.8766   -2.1585   -1.5065 O.co2    1 ZINC000003830813   -1.1800
12     H12     1.0039    1.9031    0.0027 H        1 ZINC000003830813    0.0100
13     H13    -0.5459    1.8868   -0.8726 H        1 ZINC000003830813    0.0600
14     H14    -0.5289    1.8773    0.9072 H        1 ZINC000003830813    0.0100
15     H15     0.7451   -1.4412    1.2202 H        1 ZINC000003830813    0.3400
@<TRIPOS>BOND
1     1     2     1
2     1     12    1
3     1     13    1
4     1     14    1
5     2     3     1
6     2     4     1
7     2     8     1
8     3     15    1
9     4     5     ar
10    4     6     ar
11    4     7     ar
12    8     9     ar
13    8     10    ar
14    8     11    ar
@<TRIPOS>SUBSTRUCTURE
1   ZINC000003830813 1     RESIDUE    1   A     ZIN   1
