@<TRIPOS>MOLECULE
ZINC000003819138
53    55    1     0     0
SMALL
USER_CHARGES
@<TRIPOS>ATOM
1      C1     -0.0187    1.5258    0.0104 C.3      1 ZINC000003819138   -0.1500
2      C2      0.0021   -0.0041    0.0020 C.3      1 ZINC000003819138    0.0500
3      O3      0.6932   -0.4774    1.1597 O.3      1 ZINC000003819138   -0.3200
4      C4      0.8020   -1.8242    1.3057 C.ar     1 ZINC000003819138    0.1300
5      C5      0.2597   -2.6726    0.3512 C.ar     1 ZINC000003819138   -0.2100
6      C6      0.3721   -4.0412    0.5016 C.ar     1 ZINC000003819138   -0.0700
7      C7      1.0238   -4.5657    1.6025 C.ar     1 ZINC000003819138   -0.1200
8      C8      1.1444   -6.0591    1.7643 C.3      1 ZINC000003819138   -0.0400
9      C9      2.4116   -6.5354    1.1021 C.ar     1 ZINC000003819138   -0.0700
10     C10     3.5336   -6.7977    1.8650 C.ar     1 ZINC000003819138   -0.0700
11     C11     4.6963   -7.2346    1.2575 C.ar     1 ZINC000003819138   -0.0700
12     C12     5.9195   -7.5204    2.0900 C.3      1 ZINC000003819138    0.1400
13     H13     5.8340   -7.0094    3.0491 H        1 ZINC000003819138    0.0800
14     O14     7.0828   -7.0539    1.4036 O.3      1 ZINC000003819138   -0.3400
15     C15     8.3027   -7.2532    2.1207 C.3      1 ZINC000003819138    0.1000
16     H16     8.2485   -6.7389    3.0802 H        1 ZINC000003819138    0.0800
17     C17     9.4706   -6.6927    1.3066 C.3      1 ZINC000003819138    0.0900
18     O18     9.3304   -5.2757    1.1859 O.3      1 ZINC000003819138   -0.5700
19     C19     8.5160   -8.7509    2.3555 C.3      1 ZINC000003819138    0.0500
20     H20     8.6108   -9.2601    1.3964 H        1 ZINC000003819138    0.0800
21     O21     9.7061   -8.9495    3.1213 O.3      1 ZINC000003819138   -0.5500
22     C22     7.3144   -9.3164    3.1188 C.3      1 ZINC000003819138    0.0400
23     H23     7.2486   -8.8425    4.0982 H        1 ZINC000003819138    0.0800
24     O24     7.4715  -10.7275    3.2801 O.3      1 ZINC000003819138   -0.5600
25     C25     6.0370   -9.0288    2.3239 C.3      1 ZINC000003819138    0.1000
26     H26     6.0815   -9.5435    1.3641 H        1 ZINC000003819138    0.0700
27     O27     4.9023   -9.4892    3.0605 O.3      1 ZINC000003819138   -0.5500
28     C28     4.7369   -7.4099   -0.1129 C.ar     1 ZINC000003819138   -0.0800
29     C29     3.6152   -7.1479   -0.8771 C.ar     1 ZINC000003819138   -0.1100
30     C30     2.4501   -6.7157   -0.2693 C.ar     1 ZINC000003819138   -0.0200
31     Cl31    1.0409   -6.3866   -1.2283 Cl       1 ZINC000003819138   -0.0700
32     C32     1.5655   -3.7223    2.5549 C.ar     1 ZINC000003819138   -0.0700
33     C33     1.4604   -2.3529    2.4064 C.ar     1 ZINC000003819138   -0.1500
34     H34     1.0039    1.9031    0.0027 H        1 ZINC000003819138    0.0700
35     H35    -0.5459    1.8868   -0.8726 H        1 ZINC000003819138    0.0800
36     H36    -0.5289    1.8773    0.9072 H        1 ZINC000003819138    0.0700
37     H37    -1.0205   -0.3814    0.0098 H        1 ZINC000003819138    0.0600
38     H38     0.5123   -0.3556   -0.8948 H        1 ZINC000003819138    0.0600
39     H39    -0.2501   -2.2634   -0.5084 H        1 ZINC000003819138    0.1300
40     H40    -0.0499   -4.7020   -0.2411 H        1 ZINC000003819138    0.1300
41     H41     1.1729   -6.3085    2.8250 H        1 ZINC000003819138    0.0900
42     H42     0.2867   -6.5454    1.2996 H        1 ZINC000003819138    0.0900
43     H43     3.5024   -6.6609    2.9358 H        1 ZINC000003819138    0.1300
44     H44    10.4089   -6.9233    1.8111 H        1 ZINC000003819138    0.0700
45     H45     9.4712   -7.1436    0.3142 H        1 ZINC000003819138    0.0500
46     H46    10.0376   -4.8522    0.6805 H        1 ZINC000003819138    0.3800
47     H47     9.9034   -9.8775    3.3079 H        1 ZINC000003819138    0.3800
48     H48     8.2654  -10.9814    3.7705 H        1 ZINC000003819138    0.3800
49     H49     4.9136  -10.4377    3.2480 H        1 ZINC000003819138    0.3900
50     H50     5.6454   -7.7512   -0.5868 H        1 ZINC000003819138    0.1300
51     H51     3.6471   -7.2849   -1.9479 H        1 ZINC000003819138    0.1300
52     H52     2.0744   -4.1344    3.4137 H        1 ZINC000003819138    0.1300
53     H53     1.8837   -1.6945    3.1506 H        1 ZINC000003819138    0.1300
@<TRIPOS>BOND
1     1     2     1
2     1     34    1
3     1     35    1
4     1     36    1
5     2     3     1
6     2     37    1
7     2     38    1
8     3     4     1
9     4     33    ar
10    4     5     ar
11    5     6     ar
12    5     39    1
13    6     7     ar
14    6     40    1
15    7     8     1
16    7     32    ar
17    8     9     1
18    8     41    1
19    8     42    1
20    9     30    ar
21    9     10    ar
22    10    11    ar
23    10    43    1
24    11    12    1
25    11    28    ar
26    12    13    1
27    12    25    1
28    12    14    1
29    14    15    1
30    15    16    1
31    15    17    1
32    15    19    1
33    17    18    1
34    17    44    1
35    17    45    1
36    18    46    1
37    19    20    1
38    19    21    1
39    19    22    1
40    21    47    1
41    22    23    1
42    22    24    1
43    22    25    1
44    24    48    1
45    25    26    1
46    25    27    1
47    27    49    1
48    28    29    ar
49    28    50    1
50    29    30    ar
51    29    51    1
52    30    31    1
53    32    33    ar
54    32    52    1
55    33    53    1
@<TRIPOS>SUBSTRUCTURE
1   ZINC000003819138 1     RESIDUE    1   A     ZIN   1
