@<TRIPOS>MOLECULE
ZINC000003806063
68   70    0    0    0
SMALL
USER_CHARGES
NO_NAME
@<TRIPOS>ATOM
1 C1        0.6792     1.2082    -0.1941 C.3    1 <0>      -0.1800
2 C2        0.5044    -0.3117    -0.2067 C.3    1 <0>       0.0300
3 H3        0.8753    -0.7123    -1.1501 H      1 <0>       0.1400
4 C4       -0.9786    -0.6558    -0.0545 C.3    1 <0>      -0.0900
5 C5       -1.1653    -2.1451    -0.1898 C.ar   1 <0>      -0.2000
6 C6       -1.3962    -2.7033    -1.4364 C.ar   1 <0>      -0.0200
7 C7       -1.5691    -4.0663    -1.5728 C.ar   1 <0>      -0.1600
8 C8       -1.5142    -4.8984    -0.4655 C.ar   1 <0>       0.2700
9 C9       -1.2793    -4.3288     0.8039 C.ar   1 <0>      -0.1900
10 C10      -1.2159    -5.1899     1.9990 C.2    1 <0>       0.5700
11 N11      -0.1153    -5.1830     2.7768 N.am   1 <0>      -0.8500
12 O12      -2.1566    -5.9062     2.2828 O.2    1 <0>      -0.5200
13 C13      -1.1005    -2.9512     0.9258 C.ar   1 <0>      -0.0600
14 N14      -1.7109    -6.2280    -0.8098 N.pl3  1 <0>      -0.6000
15 C15      -1.7111    -7.3472     0.1355 C.3    1 <0>       0.1300
16 C16      -3.1503    -7.6735     0.5393 C.3    1 <0>      -0.1300
17 C17      -3.1504    -8.8424     1.5265 C.3    1 <0>       0.0900
18 O18      -4.4946    -9.1472     1.9038 O.3    1 <0>      -0.5700
19 C19      -1.9194    -6.3513    -2.2549 C.3    1 <0>       0.1100
20 C20      -1.8300    -4.9152    -2.7973 C.3    1 <0>      -0.0900
21 N21       1.2605    -0.9008     0.9065 N.4    1 <0>      -0.5100
22 H22       0.9741    -0.4701     1.7728 H      1 <0>       0.4200
23 H23       1.0798    -1.8927     0.9482 H      1 <0>       0.4300
24 C24       2.6966    -0.6731     0.6977 C.3    1 <0>       0.0000
25 C25       3.4841    -1.2867     1.8571 C.3    1 <0>       0.0200
26 O26       3.3209    -2.7063     1.8454 O.3    1 <0>      -0.3200
27 C27       3.9608    -3.4094     2.8177 C.ar   1 <0>       0.0900
28 C28       4.7239    -2.7471     3.7653 C.ar   1 <0>      -0.1600
29 C29       5.3736    -3.4635     4.7537 C.ar   1 <0>      -0.1100
30 C30       5.2640    -4.8405     4.7987 C.ar   1 <0>      -0.1000
31 C31       4.5041    -5.5079     3.8556 C.ar   1 <0>      -0.1700
32 C32       3.8457    -4.7957     2.8665 C.ar   1 <0>       0.1000
33 O33       3.0981    -5.4505     1.9383 O.3    1 <0>      -0.2900
34 C34       3.0353    -6.8743     2.0427 C.3    1 <0>       0.0100
35 C35       2.1551    -7.4297     0.9212 C.3    1 <0>       0.4600
36 F36       2.7004    -7.0765    -0.3178 F      1 <0>      -0.1700
37 F37       2.0937    -8.8236     1.0234 F      1 <0>      -0.1700
38 F38       0.8664    -6.8967     1.0325 F      1 <0>      -0.1700
39 H39       1.7357     1.4533    -0.3026 H      1 <0>       0.0800
40 H40       0.1182     1.6453    -1.0201 H      1 <0>       0.1100
41 H41       0.3082     1.6088     0.7493 H      1 <0>       0.0800
42 H42      -1.3276    -0.3335     0.9266 H      1 <0>       0.0900
43 H43      -1.5513    -0.1460    -0.8293 H      1 <0>       0.1200
44 H44      -1.4416    -2.0675    -2.3082 H      1 <0>       0.1300
45 H45       0.6351    -4.6116     2.5504 H      1 <0>       0.4000
46 H46      -0.0735    -5.7496     3.5631 H      1 <0>       0.4000
47 H47      -0.9207    -2.5145     1.8971 H      1 <0>       0.1200
48 H48      -1.2589    -8.2203    -0.3351 H      1 <0>       0.0700
49 H49      -1.1380    -7.0745     1.0216 H      1 <0>       0.1000
50 H50      -3.6024    -6.8005     1.0099 H      1 <0>       0.0900
51 H51      -3.7233    -7.9463    -0.3468 H      1 <0>       0.0600
52 H52      -2.6983    -9.7155     1.0560 H      1 <0>       0.0400
53 H53      -2.5773    -8.5697     2.4127 H      1 <0>       0.0500
54 H54      -4.5708    -9.8803     2.5297 H      1 <0>       0.3800
55 H55      -1.1407    -6.9722    -2.6979 H      1 <0>       0.0800
56 H56      -2.9033    -6.7729    -2.4607 H      1 <0>       0.0800
57 H57      -2.7699    -4.6265    -3.2676 H      1 <0>       0.0900
58 H58      -1.0058    -4.8260    -3.5050 H      1 <0>       0.0900
59 H59       3.0060    -1.1384    -0.2382 H      1 <0>       0.1400
60 H60       2.8918     0.3983     0.6527 H      1 <0>       0.1500
61 H61       4.5407    -1.0415     1.7487 H      1 <0>       0.1100
62 H62       3.1132    -0.8861     2.8005 H      1 <0>       0.0900
63 H63       4.8118    -1.6712     3.7319 H      1 <0>       0.1400
64 H64       5.9683    -2.9459     5.4918 H      1 <0>       0.1400
65 H65       5.7732    -5.3966     5.5719 H      1 <0>       0.1400
66 H66       4.4206    -6.5841     3.8926 H      1 <0>       0.1400
67 H67       4.0394    -7.2896     1.9560 H      1 <0>       0.1100
68 H68       2.6105    -7.1495     3.0080 H      1 <0>       0.1100
@<TRIPOS>BOND
1    1    2 1
2    1   39 1
3    1   40 1
4    1   41 1
5    2    3 1
6    2    4 1
7    2   21 1
8    4    5 1
9    4   42 1
10    4   43 1
11    5   13 ar
12    5    6 ar
13    6    7 ar
14    6   44 1
15    7   20 1
16    7    8 ar
17    8    9 ar
18    8   14 1
19    9   10 1
20    9   13 ar
21   10   11 am
22   10   12 2
23   11   45 1
24   11   46 1
25   13   47 1
26   14   15 1
27   14   19 1
28   15   16 1
29   15   48 1
30   15   49 1
31   16   17 1
32   16   50 1
33   16   51 1
34   17   18 1
35   17   52 1
36   17   53 1
37   18   54 1
38   19   20 1
39   19   55 1
40   19   56 1
41   20   57 1
42   20   58 1
43   21   22 1
44   21   23 1
45   21   24 1
46   24   25 1
47   24   59 1
48   24   60 1
49   25   26 1
50   25   61 1
51   25   62 1
52   26   27 1
53   27   32 ar
54   27   28 ar
55   28   29 ar
56   28   63 1
57   29   30 ar
58   29   64 1
59   30   31 ar
60   30   65 1
61   31   32 ar
62   31   66 1
63   32   33 1
64   33   34 1
65   34   35 1
66   34   67 1
67   34   68 1
68   35   36 1
69   35   37 1
70   35   38 1
