@<TRIPOS>MOLECULE
ZINC000003812988
54    58    1     0     0
SMALL
USER_CHARGES
@<TRIPOS>ATOM
1      O1     -0.6654    1.0755   -0.2451 O.3      1 ZINC000003812988   -0.4900
2      C2     -0.5242   -0.2744   -0.1778 C.ar     1 ZINC000003812988    0.1300
3      C3     -0.5195   -1.0345   -1.3381 C.ar     1 ZINC000003812988   -0.1400
4      C4     -0.3846   -2.4043   -1.2607 C.ar     1 ZINC000003812988   -0.0900
5      C5     -0.2545   -3.0344   -0.0286 C.ar     1 ZINC000003812988   -0.1200
6      C6     -0.1569   -4.5360   -0.0177 C.3      1 ZINC000003812988   -0.0900
7      C7      0.2283   -5.0794    1.3461 C.3      1 ZINC000003812988    0.0000
8      H8     -0.0555   -6.1314    1.3749 H        1 ZINC000003812988    0.1400
9      N9      1.6599   -5.0005    1.5995 N.4      1 ZINC000003812988   -0.3600
10     H10     1.8668   -5.4799    2.4629 H        1 ZINC000003812988    0.4300
11     C11     2.3760   -5.6645    0.5021 C.3      1 ZINC000003812988   -0.0100
12     C12     3.8668   -5.7398    0.8377 C.3      1 ZINC000003812988   -0.1500
13     C13     4.2535   -6.9882    1.6481 C.3      1 ZINC000003812988   -0.1500
14     C14     5.5193   -7.0643    0.7782 C.3      1 ZINC000003812988   -0.1400
15     C15     4.7269   -6.3099   -0.3025 C.3      1 ZINC000003812988   -0.1300
16     C16     2.1265   -3.6155    1.7006 C.3      1 ZINC000003812988   -0.0200
17     C17     1.3828   -2.9004    2.8355 C.3      1 ZINC000003812988   -0.1300
18     C18    -0.1133   -2.9154    2.4895 C.3      1 ZINC000003812988    0.0000
19     C19    -0.9066   -2.1460    3.5377 C.3      1 ZINC000003812988   -0.1000
20     C20    -2.3981   -2.2021    3.1971 C.3      1 ZINC000003812988   -0.1300
21     C21    -2.8575   -3.6612    3.1611 C.3      1 ZINC000003812988   -0.1200
22     C22    -2.0655   -4.4219    2.0955 C.3      1 ZINC000003812988   -0.1400
23     C23    -0.5588   -4.3577    2.4401 C.3      1 ZINC000003812988    0.1400
24     O24    -0.3247   -4.9904    3.6999 O.3      1 ZINC000003812988   -0.5400
25     C25    -0.2426   -2.2772    1.1225 C.ar     1 ZINC000003812988   -0.0600
26     C26    -0.3783   -0.9000    1.0499 C.ar     1 ZINC000003812988   -0.1400
27     H27     0.1707    1.5550   -0.3235 H        1 ZINC000003812988    0.4000
28     H28    -0.6215   -0.5543   -2.3001 H        1 ZINC000003812988    0.1400
29     H29    -0.3805   -2.9934   -2.1659 H        1 ZINC000003812988    0.1300
30     H30    -1.1213   -4.9547   -0.3052 H        1 ZINC000003812988    0.1200
31     H31     0.5922   -4.8466   -0.7460 H        1 ZINC000003812988    0.1000
32     H32     1.9823   -6.6721    0.3685 H        1 ZINC000003812988    0.1300
33     H33     2.2389   -5.0960   -0.4178 H        1 ZINC000003812988    0.1300
34     H34     4.2544   -4.8100    1.2540 H        1 ZINC000003812988    0.1100
35     H35     4.4575   -6.7809    2.6986 H        1 ZINC000003812988    0.0800
36     H36     3.5746   -7.8289    1.5056 H        1 ZINC000003812988    0.0900
37     H37     6.3595   -6.4974    1.1792 H        1 ZINC000003812988    0.0900
38     H38     5.7914   -8.0800    0.4910 H        1 ZINC000003812988    0.0800
39     H39     4.1773   -6.9652   -0.9783 H        1 ZINC000003812988    0.0900
40     H40     5.3130   -5.5551   -0.8267 H        1 ZINC000003812988    0.0800
41     H41     3.1968   -3.6076    1.9069 H        1 ZINC000003812988    0.1300
42     H42     1.9355   -3.0989    0.7599 H        1 ZINC000003812988    0.1300
43     H43     1.5505   -3.4251    3.7760 H        1 ZINC000003812988    0.1000
44     H44     1.7335   -1.8715    2.9171 H        1 ZINC000003812988    0.1100
45     H45    -0.7412   -2.5928    4.5180 H        1 ZINC000003812988    0.0900
46     H46    -0.5765   -1.1073    3.5524 H        1 ZINC000003812988    0.0800
47     H47    -2.9646   -1.6613    3.9551 H        1 ZINC000003812988    0.0700
48     H48    -2.5658   -1.7441    2.2223 H        1 ZINC000003812988    0.0700
49     H49    -2.6880   -4.1193    4.1355 H        1 ZINC000003812988    0.0700
50     H50    -3.9201   -3.7014    2.9213 H        1 ZINC000003812988    0.0700
51     H51    -2.3985   -5.4594    2.0667 H        1 ZINC000003812988    0.0800
52     H52    -2.2295   -3.9602    1.1219 H        1 ZINC000003812988    0.0900
53     H53    -0.5814   -5.9224    3.7256 H        1 ZINC000003812988    0.3900
54     H54    -0.4024   -0.3141    1.9569 H        1 ZINC000003812988    0.1400
@<TRIPOS>BOND
1     1     2     1
2     1     27    1
3     2     26    ar
4     2     3     ar
5     3     4     ar
6     3     28    1
7     4     5     ar
8     4     29    1
9     5     25    ar
10    5     6     1
11    6     7     1
12    6     30    1
13    6     31    1
14    7     8     1
15    7     23    1
16    7     9     1
17    9     10    1
18    9     11    1
19    9     16    1
20    11    12    1
21    11    32    1
22    11    33    1
23    12    15    1
24    12    13    1
25    12    34    1
26    13    14    1
27    13    35    1
28    13    36    1
29    14    15    1
30    14    37    1
31    14    38    1
32    15    39    1
33    15    40    1
34    16    17    1
35    16    41    1
36    16    42    1
37    17    18    1
38    17    43    1
39    17    44    1
40    18    23    1
41    18    19    1
42    18    25    1
43    19    20    1
44    19    45    1
45    19    46    1
46    20    21    1
47    20    47    1
48    20    48    1
49    21    22    1
50    21    49    1
51    21    50    1
52    22    23    1
53    22    51    1
54    22    52    1
55    23    24    1
56    24    53    1
57    25    26    ar
58    26    54    1
@<TRIPOS>SUBSTRUCTURE
1   ZINC000003812988 1     RESIDUE    1   A     ZIN   1
