@<TRIPOS>MOLECULE
ZINC000000002028
14    14    1     0     0
SMALL
USER_CHARGES
@<TRIPOS>ATOM
1      O1     -0.0164    1.3548    0.0095 O.3      1 ZINC000000002028   -0.5000
2      C2      0.0021   -0.0041    0.0020 C.ar     1 ZINC000000002028    0.1200
3      C3      0.0058   -0.6919   -1.2032 C.ar     1 ZINC000000002028   -0.1600
4      C4      0.0246   -2.0735   -1.2115 C.ar     1 ZINC000000002028   -0.0900
5      C5      0.0396   -2.7737   -0.0204 C.ar     1 ZINC000000002028   -0.1600
6      C6      0.0360   -2.0904    1.1875 C.ar     1 ZINC000000002028    0.1200
7      O7      0.0508   -2.7796    2.3587 O.3      1 ZINC000000002028   -0.5000
8      C8      0.0229   -0.7042    1.1984 C.ar     1 ZINC000000002028   -0.1700
9      H9      0.8616    1.7601    0.0033 H        1 ZINC000000002028    0.3900
10     H10    -0.0063   -0.1469   -2.1356 H        1 ZINC000000002028    0.1300
11     H11     0.0271   -2.6070   -2.1505 H        1 ZINC000000002028    0.1300
12     H12     0.0539   -3.8535   -0.0294 H        1 ZINC000000002028    0.1300
13     H13     0.9383   -2.9671    2.6935 H        1 ZINC000000002028    0.3900
14     H14     0.0201   -0.1707    2.1374 H        1 ZINC000000002028    0.1400
@<TRIPOS>BOND
1     1     2     1
2     1     9     1
3     2     8     ar
4     2     3     ar
5     3     4     ar
6     3     10    1
7     4     5     ar
8     4     11    1
9     5     6     ar
10    5     12    1
11    6     7     1
12    6     8     ar
13    7     13    1
14    8     14    1
@<TRIPOS>SUBSTRUCTURE
1   ZINC000000002028 1     RESIDUE    1   A     ZIN   1
