@<TRIPOS>MOLECULE
ZINC000000537957
40   40    0    0    0
SMALL
USER_CHARGES
NO_NAME
@<TRIPOS>ATOM
1 C1        1.5241     1.0478    -0.4959 C.3    1 <0>      -0.1200
2 C2        1.3267    -0.4462    -0.4857 C.ar   1 <0>      -0.0700
3 C3        2.1533    -1.2564    -1.2416 C.ar   1 <0>      -0.1200
4 C4        1.9753    -2.6262    -1.2342 C.ar   1 <0>      -0.0800
5 C5        2.8775    -3.5084    -2.0582 C.3    1 <0>      -0.1100
6 C6        0.9648    -3.1898    -0.4665 C.ar   1 <0>       0.1500
7 N7        0.7826    -4.5771    -0.4568 N.am   1 <0>      -0.6900
8 C8        0.8185    -5.2534     0.7084 C.2    1 <0>       0.5200
9 O9        0.9109    -4.6506     1.7568 O.2    1 <0>      -0.4800
10 C10       0.7439    -6.7586     0.7087 C.3    1 <0>       0.0500
11 N11       0.8019    -7.2515     2.0913 N.3    1 <0>      -0.4600
12 C12       0.4955    -8.6869     2.1518 C.3    1 <0>       0.0100
13 C13      -0.9898    -8.8904     1.9990 C.2    1 <0>       0.5100
14 O14      -1.7224    -7.9306     1.8296 O.co2  1 <0>      -0.6800
15 O15      -1.4590   -10.0148     2.0448 O.co2  1 <0>      -0.7300
16 C16       2.1093    -6.9662     2.6975 C.3    1 <0>      -0.0100
17 C17       2.0125    -7.1159     4.1939 C.2    1 <0>       0.5000
18 O18       0.9670    -7.4813     4.7037 O.co2  1 <0>      -0.6700
19 O19       2.9797    -6.8715     4.8948 O.co2  1 <0>      -0.7300
20 C20       0.1355    -2.3739     0.2920 C.ar   1 <0>      -0.0300
21 C21      -0.9621    -2.9815     1.1269 C.3    1 <0>      -0.1200
22 C22       0.3218    -1.0048     0.2847 C.ar   1 <0>      -0.0900
23 Br23     -0.8060     0.1077     1.3174 Br     1 <0>      -0.0500
24 H24       2.2229     1.3273     0.2926 H      1 <0>       0.0700
25 H25       1.9247     1.3548    -1.4620 H      1 <0>       0.0700
26 H26       0.5676     1.5419    -0.3255 H      1 <0>       0.0700
27 H27       2.9390    -0.8178    -1.8388 H      1 <0>       0.1300
28 H28       3.7423    -3.8009    -1.4627 H      1 <0>       0.0700
29 H29       2.3310    -4.3994    -2.3672 H      1 <0>       0.0700
30 H30       3.2117    -2.9629    -2.9407 H      1 <0>       0.0700
31 H31       0.6304    -5.0521    -1.2888 H      1 <0>       0.4000
32 H32      -0.1919    -7.0761     0.2487 H      1 <0>       0.1100
33 H33       1.5828    -7.1640     0.1429 H      1 <0>       0.0300
34 H34       1.0178    -9.2041     1.3469 H      1 <0>       0.0100
35 H35       0.8203    -9.0876     3.1120 H      1 <0>       0.0900
36 H36       2.8500    -7.6655     2.3096 H      1 <0>       0.0100
37 H37       2.4086    -5.9471     2.4529 H      1 <0>       0.0700
38 H38      -0.6180    -3.0909     2.1554 H      1 <0>       0.1000
39 H39      -1.8377    -2.3328     1.1038 H      1 <0>       0.0600
40 H40      -1.2244    -3.9604     0.7255 H      1 <0>       0.0700
@<TRIPOS>BOND
1    1    2 1
2    1   24 1
3    1   25 1
4    1   26 1
5    2   22 ar
6    2    3 ar
7    3    4 ar
8    3   27 1
9    4    5 1
10    4    6 ar
11    5   28 1
12    5   29 1
13    5   30 1
14    6    7 1
15    6   20 ar
16    7    8 am
17    7   31 1
18    8    9 2
19    8   10 1
20   10   11 1
21   10   32 1
22   10   33 1
23   11   12 1
24   11   16 1
25   12   13 1
26   12   34 1
27   12   35 1
28   13   14 ar
29   13   15 ar
30   16   17 1
31   16   36 1
32   16   37 1
33   17   18 ar
34   17   19 ar
35   20   21 1
36   20   22 ar
37   21   38 1
38   21   39 1
39   21   40 1
40   22   23 1
