@<TRIPOS>MOLECULE
ZINC000012402836
58    60    1     0     0
SMALL
USER_CHARGES
@<TRIPOS>ATOM
1      C1     -1.1177    1.4318   -2.1339 C.3      1 ZINC000012402836   -0.1900
2      C2     -0.8286   -0.0602   -1.9569 C.3      1 ZINC000012402836   -0.0200
3      N3     -0.2630   -0.2943   -0.6215 N.4      1 ZINC000012402836   -0.3900
4      H4      0.5483    0.2915   -0.4924 H        1 ZINC000012402836    0.4300
5      C5     -1.2682    0.0294    0.3996 C.3      1 ZINC000012402836   -0.0100
6      C6     -0.6385   -0.0848    1.7893 C.3      1 ZINC000012402836   -0.1900
7      C7      0.1266   -1.7051   -0.4952 C.3      1 ZINC000012402836   -0.0100
8      C8      1.2616   -2.0103   -1.4747 C.3      1 ZINC000012402836    0.0300
9      O9      2.4226   -1.2631   -1.1063 O.3      1 ZINC000012402836   -0.3300
10     C10     3.5286   -1.4205   -1.8797 C.ar     1 ZINC000012402836    0.1200
11     C11     3.4922   -2.2740   -2.9746 C.ar     1 ZINC000012402836   -0.2000
12     C12     4.6122   -2.4364   -3.7617 C.ar     1 ZINC000012402836   -0.0500
13     C13     5.7840   -1.7417   -3.4568 C.ar     1 ZINC000012402836   -0.0600
14     C14     6.9880   -1.9127   -4.2992 C.2      1 ZINC000012402836   -0.0300
15     C15     6.9749   -1.5031   -5.5927 C.2      1 ZINC000012402836    0.0000
16     Cl16    5.6059   -0.6355   -6.2145 Cl       1 ZINC000012402836   -0.0600
17     C17     8.1209   -1.7943   -6.4683 C.ar     1 ZINC000012402836   -0.0700
18     C18     8.6439   -3.0899   -6.5341 C.ar     1 ZINC000012402836   -0.0800
19     C19     9.7178   -3.3548   -7.3574 C.ar     1 ZINC000012402836   -0.1200
20     C20    10.2783   -2.3427   -8.1171 C.ar     1 ZINC000012402836   -0.1000
21     C21     9.7668   -1.0581   -8.0572 C.ar     1 ZINC000012402836   -0.1200
22     C22     8.6893   -0.7783   -7.2435 C.ar     1 ZINC000012402836   -0.0900
23     C23     8.2066   -2.5305   -3.7311 C.ar     1 ZINC000012402836   -0.0400
24     C24     8.2000   -3.8736   -3.3522 C.ar     1 ZINC000012402836   -0.1000
25     C25     9.3396   -4.4438   -2.8237 C.ar     1 ZINC000012402836   -0.1200
26     C26    10.4874   -3.6868   -2.6685 C.ar     1 ZINC000012402836   -0.1100
27     C27    10.5005   -2.3547   -3.0421 C.ar     1 ZINC000012402836   -0.1100
28     C28     9.3693   -1.7741   -3.5773 C.ar     1 ZINC000012402836   -0.0900
29     C29     5.8165   -0.8847   -2.3554 C.ar     1 ZINC000012402836   -0.0500
30     C30     4.6907   -0.7232   -1.5765 C.ar     1 ZINC000012402836   -0.1400
31     H31    -0.2133    2.0041   -1.9276 H        1 ZINC000012402836    0.0800
32     H32    -1.4413    1.6202   -3.1576 H        1 ZINC000012402836    0.1100
33     H33    -1.9045    1.7339   -1.4427 H        1 ZINC000012402836    0.0800
34     H34    -1.7548   -0.6249   -2.0633 H        1 ZINC000012402836    0.1300
35     H35    -0.1161   -0.3847   -2.7153 H        1 ZINC000012402836    0.1300
36     H36    -1.6275    1.0469    0.2460 H        1 ZINC000012402836    0.1300
37     H37    -2.1034   -0.6666    0.3208 H        1 ZINC000012402836    0.1300
38     H38    -0.3708   -1.1236    1.9826 H        1 ZINC000012402836    0.0800
39     H39     0.2565    0.5356    1.8348 H        1 ZINC000012402836    0.0800
40     H40    -1.3528    0.2521    2.5407 H        1 ZINC000012402836    0.1100
41     H41     0.4634   -1.8992    0.5231 H        1 ZINC000012402836    0.1400
42     H42    -0.7297   -2.3402   -0.7220 H        1 ZINC000012402836    0.1500
43     H43     1.4906   -3.0756   -1.4449 H        1 ZINC000012402836    0.1100
44     H44     0.9557   -1.7326   -2.4834 H        1 ZINC000012402836    0.0900
45     H45     2.5854   -2.8115   -3.2096 H        1 ZINC000012402836    0.1300
46     H46     4.5833   -3.1006   -4.6128 H        1 ZINC000012402836    0.1300
47     H47     8.2081   -3.8805   -5.9413 H        1 ZINC000012402836    0.1200
48     H48    10.1228   -4.3546   -7.4094 H        1 ZINC000012402836    0.1300
49     H49    11.1195   -2.5565   -8.7598 H        1 ZINC000012402836    0.1300
50     H50    10.2099   -0.2736   -8.6528 H        1 ZINC000012402836    0.1300
51     H51     8.2911    0.2245   -7.1980 H        1 ZINC000012402836    0.1300
52     H52     7.3045   -4.4653   -3.4722 H        1 ZINC000012402836    0.1200
53     H53     9.3358   -5.4831   -2.5301 H        1 ZINC000012402836    0.1300
54     H54    11.3767   -4.1377   -2.2535 H        1 ZINC000012402836    0.1200
55     H55    11.3995   -1.7691   -2.9181 H        1 ZINC000012402836    0.1300
56     H56     9.3809   -0.7343   -3.8689 H        1 ZINC000012402836    0.1200
57     H57     6.7213   -0.3457   -2.1162 H        1 ZINC000012402836    0.1400
58     H58     4.7149   -0.0601   -0.7244 H        1 ZINC000012402836    0.1400
@<TRIPOS>BOND
1     1     2     1
2     1     31    1
3     1     32    1
4     1     33    1
5     2     3     1
6     2     34    1
7     2     35    1
8     3     4     1
9     3     5     1
10    3     7     1
11    5     6     1
12    5     36    1
13    5     37    1
14    6     38    1
15    6     39    1
16    6     40    1
17    7     8     1
18    7     41    1
19    7     42    1
20    8     9     1
21    8     43    1
22    8     44    1
23    9     10    1
24    10    30    ar
25    10    11    ar
26    11    12    ar
27    11    45    1
28    12    13    ar
29    12    46    1
30    13    14    1
31    13    29    ar
32    14    15    2
33    14    23    1
34    15    16    1
35    15    17    1
36    17    22    ar
37    17    18    ar
38    18    19    ar
39    18    47    1
40    19    20    ar
41    19    48    1
42    20    21    ar
43    20    49    1
44    21    22    ar
45    21    50    1
46    22    51    1
47    23    28    ar
48    23    24    ar
49    24    25    ar
50    24    52    1
51    25    26    ar
52    25    53    1
53    26    27    ar
54    26    54    1
55    27    28    ar
56    27    55    1
57    28    56    1
58    29    30    ar
59    29    57    1
60    30    58    1
@<TRIPOS>SUBSTRUCTURE
1   ZINC000012402836 1     RESIDUE    1   A     ZIN   1
