@<TRIPOS>MOLECULE
ZINC000150338698
95    96    1     0     0
SMALL
USER_CHARGES
@<TRIPOS>ATOM
1      N1      2.0019   -2.4033   -0.7007 N.am     1 ZINC000150338698   -0.8500
2      C2      0.8067   -1.8911   -0.3463 C.2      1 ZINC000150338698    0.7000
3      O3      0.7463   -0.7968    0.1798 O.2      1 ZINC000150338698   -0.5400
4      N4     -0.3215   -2.5919   -0.5752 N.am     1 ZINC000150338698   -0.6700
5      C5     -1.5433   -2.0683   -0.2129 C.2      1 ZINC000150338698    0.1800
6      C6     -2.6522   -2.8199   -0.3120 C.2      1 ZINC000150338698   -0.0600
7      N7     -3.9508   -2.2788   -0.4966 N.am     1 ZINC000150338698   -0.6300
8      C8     -4.1660   -0.9448   -0.5392 C.2      1 ZINC000150338698    0.5000
9      O9     -3.3744   -0.1260   -0.1154 O.2      1 ZINC000150338698   -0.4900
10     C10    -5.4565   -0.4431   -1.1575 C.3      1 ZINC000150338698    0.1100
11     H11    -5.2808    0.6009   -1.4805 H        1 ZINC000150338698    0.1400
12     C12    -6.5799   -0.4288   -0.1280 C.3      1 ZINC000150338698    0.1100
13     N13    -7.8365   -0.0549   -0.7817 N.am     1 ZINC000150338698   -0.7000
14     C14    -8.9733    0.0234   -0.0619 C.2      1 ZINC000150338698    0.5100
15     O15    -8.9559   -0.2157    1.1270 O.2      1 ZINC000150338698   -0.5500
16     C16   -10.2660    0.4079   -0.7343 C.3      1 ZINC000150338698   -0.1700
17     C17   -11.3939    0.4223    0.2993 C.3      1 ZINC000150338698    0.0500
18     H18   -11.4368   -0.5430    0.8037 H        1 ZINC000150338698    0.1500
19     N19   -11.1398    1.4799    1.2867 N.4      1 ZINC000150338698   -0.6400
20     H20   -11.8837    1.4894    1.9683 H        1 ZINC000150338698    0.4300
21     H21   -10.2612    1.3033    1.7502 H        1 ZINC000150338698    0.4500
22     H22   -11.1001    2.3735    0.8198 H        1 ZINC000150338698    0.4300
23     C23   -12.7263    0.6901   -0.4035 C.3      1 ZINC000150338698   -0.1500
24     C24   -13.8680    0.5812    0.6092 C.3      1 ZINC000150338698   -0.1700
25     C25   -15.2004    0.8490   -0.0936 C.3      1 ZINC000150338698   -0.0100
26     N26   -16.2966    0.7444    0.8787 N.4      1 ZINC000150338698   -0.6400
27     H27   -17.1753    0.9211    0.4153 H        1 ZINC000150338698    0.4500
28     H28   -16.3064   -0.1830    1.2761 H        1 ZINC000150338698    0.4400
29     H29   -16.1610    1.4234    1.6127 H        1 ZINC000150338698    0.4400
30     N30    -5.7761   -1.2464   -2.3493 N.am     1 ZINC000150338698   -0.7300
31     C31    -6.3280   -2.4852   -2.2176 C.2      1 ZINC000150338698    0.5200
32     O32    -6.6174   -2.9964   -1.1592 O.2      1 ZINC000150338698   -0.5000
33     C33    -6.5892   -3.2703   -3.4870 C.3      1 ZINC000150338698    0.1200
34     H34    -5.7951   -3.0724   -4.2030 H        1 ZINC000150338698    0.1300
35     C35    -7.9360   -2.8457   -4.0738 C.3      1 ZINC000150338698    0.0700
36     O36    -8.9561   -2.9998   -3.0850 O.3      1 ZINC000150338698   -0.5700
37     N37    -6.6237   -4.7083   -3.1524 N.am     1 ZINC000150338698   -0.7000
38     C38    -5.4219   -5.3535   -3.1162 C.2      1 ZINC000150338698    0.5000
39     O39    -4.3927   -4.7477   -3.3293 O.2      1 ZINC000150338698   -0.4500
40     C40    -5.3922   -6.8277   -2.8095 C.3      1 ZINC000150338698    0.0000
41     H41    -5.8497   -7.0052   -1.8362 H        1 ZINC000150338698    0.1700
42     N42    -6.1412   -7.5587   -3.8416 N.4      1 ZINC000150338698   -0.6300
43     H43    -5.7192   -7.3943   -4.7433 H        1 ZINC000150338698    0.4500
44     H44    -6.1211   -8.5462   -3.6358 H        1 ZINC000150338698    0.4500
45     H45    -7.0976   -7.2372   -3.8542 H        1 ZINC000150338698    0.4400
46     C46    -3.9430   -7.3212   -2.7907 C.3      1 ZINC000150338698    0.0900
47     N47    -3.3705   -7.0513   -1.4496 N.am     1 ZINC000150338698   -0.7000
48     C48    -2.0359   -6.7884   -1.4226 C.2      1 ZINC000150338698    0.5300
49     O49    -1.3861   -6.8789   -2.4518 O.2      1 ZINC000150338698   -0.4900
50     C50    -1.3510   -6.3749   -0.1477 C.3      1 ZINC000150338698    0.1200
51     H51    -0.3022   -6.7097   -0.1918 H        1 ZINC000150338698    0.1400
52     C52    -2.0042   -7.0033    1.0786 C.3      1 ZINC000150338698    0.1200
53     H53    -3.0660   -6.7578    1.0994 H        1 ZINC000150338698    0.1200
54     C54    -1.8214   -8.5281    1.0440 C.3      1 ZINC000150338698   -0.1700
55     C55    -2.4629   -9.1212    2.3004 C.3      1 ZINC000150338698    0.0900
56     N56    -2.0134   -8.4089    3.4910 N.pl3    1 ZINC000150338698   -0.6500
57     H57    -2.0904   -8.8566    4.3480 H        1 ZINC000150338698    0.4400
58     C58    -1.5178   -7.2152    3.4693 C.cat    1 ZINC000150338698    0.7400
59     N59    -1.1437   -6.6307    4.6561 N.pl3    1 ZINC000150338698   -0.8100
60     N60    -1.3525   -6.5086    2.3011 N.pl3    1 ZINC000150338698   -0.7000
61     N61    -1.3587   -4.8930   -0.0535 N.am     1 ZINC000150338698   -0.7400
62     C62    -2.5619   -4.2875   -0.2391 C.2      1 ZINC000150338698    0.5800
63     O63    -3.5953   -4.9265   -0.3431 O.2      1 ZINC000150338698   -0.5300
64     H64     2.8139   -1.8989   -0.5360 H        1 ZINC000150338698    0.4300
65     H65     2.0504   -3.2782   -1.1169 H        1 ZINC000150338698    0.4000
66     H66    -0.2733   -3.4651   -0.9950 H        1 ZINC000150338698    0.4000
67     H67    -1.6094   -1.0535    0.1508 H        1 ZINC000150338698    0.2000
68     H68    -4.7053   -2.9034   -0.5830 H        1 ZINC000150338698    0.4300
69     H69    -6.6809   -1.4203    0.3133 H        1 ZINC000150338698    0.1000
70     H70    -6.3475    0.2948    0.6533 H        1 ZINC000150338698    0.1000
71     H71    -7.8505    0.1363   -1.7326 H        1 ZINC000150338698    0.4100
72     H72   -10.1650    1.3994   -1.1757 H        1 ZINC000150338698    0.1300
73     H73   -10.4984   -0.3156   -1.5157 H        1 ZINC000150338698    0.1400
74     H74   -12.7157    1.6920   -0.8327 H        1 ZINC000150338698    0.1100
75     H75   -12.8727   -0.0433   -1.1964 H        1 ZINC000150338698    0.1300
76     H76   -13.8786   -0.4207    1.0384 H        1 ZINC000150338698    0.1100
77     H77   -13.7216    1.3146    1.4021 H        1 ZINC000150338698    0.0900
78     H78   -15.1898    1.8509   -0.5228 H        1 ZINC000150338698    0.1400
79     H79   -15.3468    0.1156   -0.8865 H        1 ZINC000150338698    0.1400
80     H80    -5.5906   -0.8900   -3.2531 H        1 ZINC000150338698    0.4200
81     H81    -7.8846   -1.8018   -4.3832 H        1 ZINC000150338698    0.0800
82     H82    -8.1692   -3.4694   -4.9367 H        1 ZINC000150338698    0.0800
83     H83    -9.8392   -2.7483   -3.3885 H        1 ZINC000150338698    0.3900
84     H84    -7.4590   -5.1678   -2.9676 H        1 ZINC000150338698    0.4200
85     H85    -3.9181   -8.3932   -2.9864 H        1 ZINC000150338698    0.1000
86     H86    -3.3655   -6.7954   -3.5492 H        1 ZINC000150338698    0.1300
87     H87    -3.9344   -7.0685   -0.6617 H        1 ZINC000150338698    0.4200
88     H88    -2.3073   -8.9354    0.1574 H        1 ZINC000150338698    0.1200
89     H89    -0.7586   -8.7694    1.0265 H        1 ZINC000150338698    0.1100
90     H90    -3.5471   -9.0419    2.2220 H        1 ZINC000150338698    0.1100
91     H91    -2.1851  -10.1719    2.3839 H        1 ZINC000150338698    0.1300
92     H92    -1.2536   -7.1133    5.4903 H        1 ZINC000150338698    0.4400
93     H93    -0.7700   -5.7355    4.6593 H        1 ZINC000150338698    0.4400
94     H94    -0.8149   -5.7014    2.2834 H        1 ZINC000150338698    0.4300
95     H95    -0.5369   -4.3996    0.1359 H        1 ZINC000150338698    0.4200
@<TRIPOS>BOND
1     1     2     am
2     1     64    1
3     1     65    1
4     2     3     2
5     2     4     am
6     4     5     1
7     4     66    1
8     5     6     2
9     5     67    1
10    6     62    1
11    6     7     1
12    7     8     am
13    7     68    1
14    8     9     2
15    8     10    1
16    10    11    1
17    10    12    1
18    10    30    1
19    12    13    1
20    12    69    1
21    12    70    1
22    13    14    am
23    13    71    1
24    14    15    2
25    14    16    1
26    16    17    1
27    16    72    1
28    16    73    1
29    17    18    1
30    17    19    1
31    17    23    1
32    19    20    1
33    19    21    1
34    19    22    1
35    23    24    1
36    23    74    1
37    23    75    1
38    24    25    1
39    24    76    1
40    24    77    1
41    25    26    1
42    25    78    1
43    25    79    1
44    26    27    1
45    26    28    1
46    26    29    1
47    30    31    am
48    30    80    1
49    31    32    2
50    31    33    1
51    33    34    1
52    33    35    1
53    33    37    1
54    35    36    1
55    35    81    1
56    35    82    1
57    36    83    1
58    37    38    am
59    37    84    1
60    38    39    2
61    38    40    1
62    40    41    1
63    40    42    1
64    40    46    1
65    42    43    1
66    42    44    1
67    42    45    1
68    46    47    1
69    46    85    1
70    46    86    1
71    47    48    am
72    47    87    1
73    48    49    2
74    48    50    1
75    50    51    1
76    50    52    1
77    50    61    1
78    52    53    1
79    52    60    1
80    52    54    1
81    54    55    1
82    54    88    1
83    54    89    1
84    55    56    1
85    55    90    1
86    55    91    1
87    56    57    1
88    56    58    ar
89    58    59    ar
90    58    60    ar
91    59    92    1
92    59    93    1
93    60    94    1
94    61    62    am
95    61    95    1
96    62    63    2
@<TRIPOS>SUBSTRUCTURE
1   ZINC000150338698 1     RESIDUE    1   A     ZIN   1
