@<TRIPOS>MOLECULE
ZINC000003794601
46   48    0    0    0
SMALL
USER_CHARGES
NO_NAME
@<TRIPOS>ATOM
1 C1       -0.0178     1.4648     0.0101 C.3    1 <0>      -0.0500
2 N2        0.0021    -0.0041     0.0020 N.4    1 <0>      -0.3900
3 H3        0.4744    -0.3295    -0.8281 H      1 <0>       0.4300
4 C4        0.7126    -0.4907     1.1921 C.3    1 <0>      -0.0500
5 C5       -1.3761    -0.5125     0.0124 C.3    1 <0>      -0.0100
6 C6       -2.0780    -0.1101    -1.2861 C.3    1 <0>      -0.1500
7 C7       -3.5134    -0.6397    -1.2753 C.3    1 <0>      -0.1200
8 C8       -4.2153    -0.2373    -2.5738 C.3    1 <0>       0.2000
9 C9       -3.4613    -0.7797    -3.7605 C.ar   1 <0>      -0.1000
10 C10      -2.7504    -1.9599    -3.6465 C.ar   1 <0>      -0.0900
11 C11      -2.0586    -2.4583    -4.7341 C.ar   1 <0>      -0.1500
12 C12      -2.0781    -1.7755    -5.9384 C.ar   1 <0>       0.1100
13 F13      -1.4025    -2.2620    -7.0024 F      1 <0>      -0.1300
14 C14      -2.7908    -0.5938    -6.0516 C.ar   1 <0>      -0.1500
15 C15      -3.4858    -0.0998    -4.9640 C.ar   1 <0>      -0.0600
16 O16      -4.3143     1.1960    -2.6604 O.3    1 <0>      -0.3400
17 C17      -5.5748     1.5196    -2.0457 C.3    1 <0>       0.0900
18 C18      -6.4620     0.3150    -2.2582 C.ar   1 <0>      -0.1300
19 C19      -7.8254     0.1389    -2.1873 C.ar   1 <0>      -0.0500
20 C20      -8.3770    -1.1198    -2.4398 C.ar   1 <0>       0.0000
21 C21      -9.7943    -1.3111    -2.3685 C.1    1 <0>       0.2400
22 N22     -10.9187    -1.4629    -2.3120 N.1    1 <0>      -0.3900
23 C23      -7.5404    -2.1900    -2.7624 C.ar   1 <0>      -0.0600
24 C24      -6.1750    -1.9996    -2.8300 C.ar   1 <0>      -0.0800
25 C25      -5.6359    -0.7532    -2.5793 C.ar   1 <0>      -0.1000
26 H26       1.0047     1.8421     0.0024 H      1 <0>       0.1200
27 H27      -0.5450     1.8259    -0.8730 H      1 <0>       0.1300
28 H28      -0.5280     1.8163     0.9069 H      1 <0>       0.1200
29 H29       0.2024    -0.1392     2.0889 H      1 <0>       0.1200
30 H30       0.7273    -1.5806     1.1861 H      1 <0>       0.1200
31 H31       1.7352    -0.1134     1.1844 H      1 <0>       0.1200
32 H32      -1.3618    -1.5992     0.0960 H      1 <0>       0.1300
33 H33      -1.9129    -0.0898     0.8617 H      1 <0>       0.1300
34 H34      -2.0923     0.9766    -1.3697 H      1 <0>       0.1000
35 H35      -1.5412    -0.5328    -2.1354 H      1 <0>       0.0900
36 H36      -3.4991    -1.7264    -1.1917 H      1 <0>       0.0900
37 H37      -4.0502    -0.2170    -0.4260 H      1 <0>       0.0900
38 H38      -2.7354    -2.4924    -2.7070 H      1 <0>       0.1300
39 H39      -1.5028    -3.3800    -4.6446 H      1 <0>       0.1400
40 H40      -2.8064    -0.0602    -6.9904 H      1 <0>       0.1400
41 H41      -4.0421     0.8217    -5.0521 H      1 <0>       0.1400
42 H42      -5.4372     1.7014    -0.9798 H      1 <0>       0.0900
43 H43      -6.0114     2.3966    -2.5235 H      1 <0>       0.1100
44 H44      -8.4667     0.9710    -1.9370 H      1 <0>       0.1400
45 H45      -7.9609    -3.1653    -2.9583 H      1 <0>       0.1400
46 H46      -5.5271    -2.8269    -3.0795 H      1 <0>       0.1400
@<TRIPOS>BOND
1    1    2 1
2    1   26 1
3    1   27 1
4    1   28 1
5    2    3 1
6    2    4 1
7    2    5 1
8    4   29 1
9    4   30 1
10    4   31 1
11    5    6 1
12    5   32 1
13    5   33 1
14    6    7 1
15    6   34 1
16    6   35 1
17    7    8 1
18    7   36 1
19    7   37 1
20    8   25 1
21    8    9 1
22    8   16 1
23    9   15 ar
24    9   10 ar
25   10   11 ar
26   10   38 1
27   11   12 ar
28   11   39 1
29   12   13 1
30   12   14 ar
31   14   15 ar
32   14   40 1
33   15   41 1
34   16   17 1
35   17   18 1
36   17   42 1
37   17   43 1
38   18   25 ar
39   18   19 ar
40   19   20 ar
41   19   44 1
42   20   21 1
43   20   23 ar
44   21   22 3
45   23   24 ar
46   23   45 1
47   24   25 ar
48   24   46 1
