@<TRIPOS>MOLECULE
ZINC000000509440
31    33    1     0     0
SMALL
USER_CHARGES
@<TRIPOS>ATOM
1      O1      0.4915   -0.0212    0.0565 O.2      1 ZINC000000509440   -0.4800
2      C2      0.2692    1.1706    0.0243 C.2      1 ZINC000000509440    0.5200
3      N3     -0.9884    1.5927   -0.0859 N.am     1 ZINC000000509440   -0.6600
4      C4     -1.3875    2.9208   -0.0792 C.ar     1 ZINC000000509440    0.1800
5      C5     -2.5503    3.2370    0.6256 C.ar     1 ZINC000000509440   -0.1300
6      C6     -3.0106    4.5345    0.6762 C.ar     1 ZINC000000509440   -0.0600
7      C7     -2.3194    5.5431    0.0240 C.ar     1 ZINC000000509440   -0.0500
8      Cl8    -2.9022    7.1770    0.0889 Cl       1 ZINC000000509440   -0.0500
9      C9     -1.1702    5.2495   -0.6753 C.ar     1 ZINC000000509440   -0.0500
10     C10    -0.6893    3.9328   -0.7352 C.ar     1 ZINC000000509440   -0.1300
11     C11     0.5464    3.6921   -1.4967 C.2      1 ZINC000000509440    0.2900
12     C12     0.7144    4.4173   -2.7776 C.ar     1 ZINC000000509440   -0.0700
13     C13     1.9902    4.6330   -3.2980 C.ar     1 ZINC000000509440   -0.0700
14     C14     2.1402    5.3087   -4.4916 C.ar     1 ZINC000000509440   -0.1300
15     C15     1.0282    5.7722   -5.1718 C.ar     1 ZINC000000509440   -0.1000
16     C16    -0.2400    5.5617   -4.6605 C.ar     1 ZINC000000509440   -0.1200
17     C17    -0.4031    4.8819   -3.4708 C.ar     1 ZINC000000509440   -0.0900
18     N18     1.4917    2.8998   -1.1334 N.2      1 ZINC000000509440   -0.5200
19     C19     1.4213    2.1335    0.1163 C.3      1 ZINC000000509440    0.2500
20     H20     1.2703    2.8144    0.9540 H        1 ZINC000000509440    0.0900
21     O21     2.6385    1.4084    0.3024 O.3      1 ZINC000000509440   -0.5200
22     H22    -1.6798    0.9186   -0.1786 H        1 ZINC000000509440    0.4200
23     H23    -3.0949    2.4564    1.1360 H        1 ZINC000000509440    0.1500
24     H24    -3.9116    4.7660    1.2249 H        1 ZINC000000509440    0.1500
25     H25    -0.6351    6.0389   -1.1822 H        1 ZINC000000509440    0.1500
26     H26     2.8591    4.2723   -2.7675 H        1 ZINC000000509440    0.1300
27     H27     3.1277    5.4764   -4.8956 H        1 ZINC000000509440    0.1300
28     H28     1.1506    6.3009   -6.1056 H        1 ZINC000000509440    0.1300
29     H29    -1.1042    5.9265   -5.1956 H        1 ZINC000000509440    0.1300
30     H30    -1.3936    4.7182   -3.0726 H        1 ZINC000000509440    0.1300
31     H31     3.4254    1.9679    0.3557 H        1 ZINC000000509440    0.3900
@<TRIPOS>BOND
1     1     2     2
2     2     19    1
3     2     3     am
4     3     4     1
5     3     22    1
6     4     10    ar
7     4     5     ar
8     5     6     ar
9     5     23    1
10    6     7     ar
11    6     24    1
12    7     8     1
13    7     9     ar
14    9     10    ar
15    9     25    1
16    10    11    1
17    11    12    1
18    11    18    2
19    12    17    ar
20    12    13    ar
21    13    14    ar
22    13    26    1
23    14    15    ar
24    14    27    1
25    15    16    ar
26    15    28    1
27    16    17    ar
28    16    29    1
29    17    30    1
30    18    19    1
31    19    20    1
32    19    21    1
33    21    31    1
@<TRIPOS>SUBSTRUCTURE
1   ZINC000000509440 1     RESIDUE    1   A     ZIN   1
