@<TRIPOS>MOLECULE
ZINC000043100953
46    49    1     0     0
SMALL
USER_CHARGES
@<TRIPOS>ATOM
1      C1     -0.0403    1.4603    0.0100 C.3      1 ZINC000043100953    0.0900
2      N2     -0.0089   -0.0043    0.0019 N.pl3    1 ZINC000043100953   -0.1400
3      N3      0.0132   -0.7428   -1.0523 N.2      1 ZINC000043100953   -0.0600
4      N4      0.0384   -1.9820   -0.6954 N.2      1 ZINC000043100953   -0.2700
5      C5      0.0315   -2.0102    0.6452 C.2      1 ZINC000043100953    0.2100
6      C6      0.0537   -3.2181    1.5063 C.ar     1 ZINC000043100953    0.2000
7      C7      0.0904   -4.4814    0.9188 C.ar     1 ZINC000043100953   -0.1200
8      C8      0.1108   -5.6010    1.7284 C.ar     1 ZINC000043100953   -0.0600
9      C9      0.0937   -5.4196    3.1153 C.ar     1 ZINC000043100953   -0.0700
10     C10     0.1149   -6.5891    4.0261 C.ar     1 ZINC000043100953   -0.1200
11     C11    -0.7775   -7.6422    3.8316 C.ar     1 ZINC000043100953   -0.0400
12     C12    -0.7556   -8.7290    4.6797 C.ar     1 ZINC000043100953   -0.1600
13     C13     0.1546   -8.7765    5.7289 C.ar     1 ZINC000043100953    0.2300
14     N14     0.1733   -9.8804    6.5871 N.am     1 ZINC000043100953   -0.5700
15     C15     1.1509  -10.1123    7.6614 C.3      1 ZINC000043100953    0.0600
16     C16     0.7080  -11.4534    8.2774 C.3      1 ZINC000043100953    0.0700
17     H17     0.4391  -11.3222    9.3255 H        1 ZINC000043100953    0.1300
18     C18     1.8150  -12.5001    8.1362 C.3      1 ZINC000043100953    0.1300
19     O19     1.4286  -13.6966    8.8151 O.3      1 ZINC000043100953   -0.7500
20     P20     2.3568  -15.0109    8.8727 P.3      1 ZINC000043100953    2.2100
21     O21     3.7451  -14.6365    9.4381 O.2      1 ZINC000043100953   -1.1100
22     O22     2.5193  -15.5894    7.4494 O.3      1 ZINC000043100953   -1.1000
23     O23     1.6690  -16.1124    9.8244 O.3      1 ZINC000043100953   -0.9000
24     O24    -0.4604  -11.8327    7.4939 O.3      1 ZINC000043100953   -0.2900
25     C25    -0.7000  -10.8967    6.5686 C.2      1 ZINC000043100953    0.6500
26     O26    -1.6205  -10.9656    5.7785 O.2      1 ZINC000043100953   -0.5000
27     C27     1.0465   -7.7295    5.9265 C.ar     1 ZINC000043100953   -0.1900
28     C28     1.0331   -6.6407    5.0775 C.ar     1 ZINC000043100953    0.1500
29     F29     1.9000   -5.6225    5.2693 F        1 ZINC000043100953   -0.1300
30     C30     0.0568   -4.1238    3.6297 C.ar     1 ZINC000043100953    0.1200
31     N31     0.0437   -3.0820    2.8263 N.ar     1 ZINC000043100953   -0.4500
32     N32     0.0065   -0.7553    1.0491 N.2      1 ZINC000043100953   -0.2700
33     H33     0.9793    1.8456    0.0126 H        1 ZINC000043100953    0.1000
34     H34    -0.5614    1.8174   -0.8783 H        1 ZINC000043100953    0.1100
35     H35    -0.5623    1.8076    0.9016 H        1 ZINC000043100953    0.1100
36     H36     0.1023   -4.5840   -0.1562 H        1 ZINC000043100953    0.1500
37     H37     0.1389   -6.5923    1.3006 H        1 ZINC000043100953    0.1500
38     H38    -1.4859   -7.6065    3.0172 H        1 ZINC000043100953    0.1400
39     H39    -1.4472   -9.5447    4.5287 H        1 ZINC000043100953    0.1700
40     H40     2.1578  -10.1930    7.2519 H        1 ZINC000043100953    0.1100
41     H41     1.1009   -9.3151    8.4031 H        1 ZINC000043100953    0.1100
42     H42     1.9769  -12.7175    7.0804 H        1 ZINC000043100953    0.0700
43     H43     2.7365  -12.1156    8.5734 H        1 ZINC000043100953    0.0900
44     H44     2.1746  -16.9327    9.9058 H        1 ZINC000043100953    0.4200
45     H45     1.7530   -7.7691    6.7424 H        1 ZINC000043100953    0.1500
46     H46     0.0430   -3.9738    4.6992 H        1 ZINC000043100953    0.1600
@<TRIPOS>BOND
1     1     2     1
2     1     33    1
3     1     34    1
4     1     35    1
5     2     32    1
6     2     3     1
7     3     4     2
8     4     5     1
9     5     6     1
10    5     32    2
11    6     31    ar
12    6     7     ar
13    7     8     ar
14    7     36    1
15    8     9     ar
16    8     37    1
17    9     10    1
18    9     30    ar
19    10    28    ar
20    10    11    ar
21    11    12    ar
22    11    38    1
23    12    13    ar
24    12    39    1
25    13    14    1
26    13    27    ar
27    14    25    am
28    14    15    1
29    15    16    1
30    15    40    1
31    15    41    1
32    16    17    1
33    16    18    1
34    16    24    1
35    18    19    1
36    18    42    1
37    18    43    1
38    19    20    1
39    20    21    2
40    20    22    1
41    20    23    1
42    23    44    1
43    24    25    1
44    25    26    2
45    27    28    ar
46    27    45    1
47    28    29    1
48    30    31    ar
49    30    46    1
@<TRIPOS>SUBSTRUCTURE
1   ZINC000043100953 1     RESIDUE    1   A     ZIN   1
