@<TRIPOS>MOLECULE
ZINC000003830321
46    48    1     0     0
SMALL
USER_CHARGES
@<TRIPOS>ATOM
1      C1     -0.2620    1.3381   -1.6065 C.3      1 ZINC000003830321   -0.1400
2      C2     -0.3112   -0.1613   -1.4644 C.2      1 ZINC000003830321    0.4500
3      O3     -0.0396   -0.8668   -2.4071 O.2      1 ZINC000003830321   -0.4900
4      O4     -0.6567   -0.7134   -0.2903 O.3      1 ZINC000003830321   -0.3000
5      C5     -0.7828   -2.0664   -0.2580 C.ar     1 ZINC000003830321    0.0800
6      C6      0.3483   -2.8696   -0.2467 C.ar     1 ZINC000003830321   -0.1200
7      C7      0.2174   -4.2444   -0.2138 C.ar     1 ZINC000003830321   -0.0900
8      C8     -1.0395   -4.8201   -0.1927 C.ar     1 ZINC000003830321   -0.0700
9      C9     -1.1793   -6.3202   -0.1569 C.3      1 ZINC000003830321    0.0400
10     C10    -2.0297   -6.7175    1.0221 C.ar     1 ZINC000003830321   -0.0800
11     C11    -2.8491   -7.8281    0.9390 C.ar     1 ZINC000003830321   -0.1000
12     C12    -3.6296   -8.1943    2.0184 C.ar     1 ZINC000003830321   -0.1100
13     C13    -3.5905   -7.4470    3.1866 C.ar     1 ZINC000003830321    0.0800
14     O14    -4.3571   -7.8055    4.2501 O.3      1 ZINC000003830321   -0.3000
15     C15    -5.4519   -7.0659    4.4893 C.2      1 ZINC000003830321    0.4600
16     C16    -6.2864   -7.3300    5.7161 C.3      1 ZINC000003830321   -0.1500
17     O17    -5.7679   -6.1885    3.7211 O.2      1 ZINC000003830321   -0.4900
18     C18    -2.7671   -6.3333    3.2675 C.ar     1 ZINC000003830321   -0.1200
19     C19    -1.9849   -5.9740    2.1870 C.ar     1 ZINC000003830321   -0.0900
20     C20    -1.8322   -6.7944   -1.4297 C.ar     1 ZINC000003830321    0.1400
21     C21    -3.2090   -6.7640   -1.5433 C.ar     1 ZINC000003830321   -0.1600
22     C22    -3.7999   -7.2021   -2.7189 C.ar     1 ZINC000003830321   -0.0700
23     C23    -2.9798   -7.6563   -3.7401 C.ar     1 ZINC000003830321   -0.1700
24     C24    -1.6101   -7.6573   -3.5540 C.ar     1 ZINC000003830321    0.1000
25     N25    -1.0826   -7.2285   -2.4242 N.ar     1 ZINC000003830321   -0.4800
26     C26    -2.1684   -4.0218   -0.2040 C.ar     1 ZINC000003830321   -0.0900
27     C27    -2.0428   -2.6464   -0.2305 C.ar     1 ZINC000003830321   -0.1200
28     H28     0.0359    1.5972   -2.6225 H        1 ZINC000003830321    0.1100
29     H29    -1.2475    1.7553   -1.3993 H        1 ZINC000003830321    0.1000
30     H30     0.4612    1.7465   -0.9006 H        1 ZINC000003830321    0.1000
31     H31     1.3303   -2.4204   -0.2639 H        1 ZINC000003830321    0.1300
32     H32     1.0977   -4.8701   -0.2050 H        1 ZINC000003830321    0.1400
33     H33    -0.1931   -6.7749   -0.0632 H        1 ZINC000003830321    0.1200
34     H34    -2.8792   -8.4095    0.0294 H        1 ZINC000003830321    0.1300
35     H35    -4.2700   -9.0615    1.9528 H        1 ZINC000003830321    0.1300
36     H36    -5.8486   -8.1514    6.2834 H        1 ZINC000003830321    0.0900
37     H37    -6.3142   -6.4342    6.3364 H        1 ZINC000003830321    0.1100
38     H38    -7.3000   -7.5955    5.4157 H        1 ZINC000003830321    0.1100
39     H39    -2.7352   -5.7497    4.1757 H        1 ZINC000003830321    0.1300
40     H40    -1.3436   -5.1074    2.2497 H        1 ZINC000003830321    0.1300
41     H41    -3.8173   -6.4039   -0.7268 H        1 ZINC000003830321    0.1400
42     H42    -4.8735   -7.1901   -2.8359 H        1 ZINC000003830321    0.1400
43     H43    -3.4056   -8.0052   -4.6692 H        1 ZINC000003830321    0.1400
44     H44    -0.9643   -8.0098   -4.3446 H        1 ZINC000003830321    0.1600
45     H45    -3.1491   -4.4739   -0.1874 H        1 ZINC000003830321    0.1300
46     H46    -2.9249   -2.0232   -0.2393 H        1 ZINC000003830321    0.1300
@<TRIPOS>BOND
1     1     2     1
2     1     28    1
3     1     29    1
4     1     30    1
5     2     3     2
6     2     4     1
7     4     5     1
8     5     27    ar
9     5     6     ar
10    6     7     ar
11    6     31    1
12    7     8     ar
13    7     32    1
14    8     9     1
15    8     26    ar
16    9     10    1
17    9     20    1
18    9     33    1
19    10    19    ar
20    10    11    ar
21    11    12    ar
22    11    34    1
23    12    13    ar
24    12    35    1
25    13    14    1
26    13    18    ar
27    14    15    1
28    15    16    1
29    15    17    2
30    16    36    1
31    16    37    1
32    16    38    1
33    18    19    ar
34    18    39    1
35    19    40    1
36    20    25    ar
37    20    21    ar
38    21    22    ar
39    21    41    1
40    22    23    ar
41    22    42    1
42    23    24    ar
43    23    43    1
44    24    25    ar
45    24    44    1
46    26    27    ar
47    26    45    1
48    27    46    1
@<TRIPOS>SUBSTRUCTURE
1   ZINC000003830321 1     RESIDUE    1   A     ZIN   1
