@<TRIPOS>MOLECULE
ZINC000001530973
43    45    1     0     0
SMALL
USER_CHARGES
@<TRIPOS>ATOM
1      Cl1    -0.0871    0.3273   -1.9696 Cl       1 ZINC000001530973   -0.0600
2      C2     -0.0289    2.0271   -1.6219 C.ar     1 ZINC000001530973   -0.0300
3      C3     -1.1754    2.7945   -1.7265 C.ar     1 ZINC000001530973   -0.1100
4      C4     -1.1284    4.1477   -1.4495 C.ar     1 ZINC000001530973   -0.1100
5      C5      0.0638    4.7347   -1.0685 C.ar     1 ZINC000001530973   -0.0900
6      C6      0.1144    6.2103   -0.7671 C.3      1 ZINC000001530973   -0.0800
7      C7     -0.1766    6.4379    0.7176 C.3      1 ZINC000001530973   -0.1000
8      C8     -0.1252    7.9362    1.0236 C.3      1 ZINC000001530973   -0.1100
9      H9     -0.8090    8.4660    0.3605 H        1 ZINC000001530973    0.1100
10     C10    -0.5378    8.1742    2.4775 C.3      1 ZINC000001530973    0.1000
11     N11    -1.9351    7.7738    2.6605 N.pl3    1 ZINC000001530973   -0.4000
12     C12    -3.0401    8.5351    2.3906 C.2      1 ZINC000001530973    0.0200
13     C13    -4.1150    7.7853    2.7004 C.2      1 ZINC000001530973    0.0100
14     N14    -3.6782    6.5985    3.1472 N.pl3    1 ZINC000001530973   -0.4700
15     H15    -4.2430    5.8662    3.4399 H        1 ZINC000001530973    0.4700
16     C16    -2.3735    6.5826    3.1214 C.cat    1 ZINC000001530973    0.2900
17     S17     1.5628    8.5484    0.7660 S.3      1 ZINC000001530973   -0.0400
18     C18     1.3829   10.2924    0.9408 C.ar     1 ZINC000001530973   -0.1500
19     C19     0.9559   11.0604   -0.1365 C.ar     1 ZINC000001530973    0.0200
20     Cl20    0.5983   10.3023   -1.6568 Cl       1 ZINC000001530973   -0.0300
21     C21     0.8160   12.4281    0.0045 C.ar     1 ZINC000001530973   -0.1100
22     C22     1.1002   13.0328    1.2153 C.ar     1 ZINC000001530973   -0.0600
23     C23     1.5257   12.2724    2.2892 C.ar     1 ZINC000001530973   -0.1100
24     C24     1.6620   10.9034    2.1579 C.ar     1 ZINC000001530973    0.0100
25     Cl25    2.1961    9.9498    3.5067 Cl       1 ZINC000001530973   -0.0300
26     C26     1.2096    3.9683   -0.9634 C.ar     1 ZINC000001530973   -0.1000
27     C27     1.1626    2.6138   -1.2345 C.ar     1 ZINC000001530973   -0.1000
28     H28    -2.1067    2.3362   -2.0248 H        1 ZINC000001530973    0.1300
29     H29    -2.0233    4.7469   -1.5311 H        1 ZINC000001530973    0.1300
30     H30     1.1053    6.5963   -1.0065 H        1 ZINC000001530973    0.0900
31     H31    -0.6326    6.7296   -1.3675 H        1 ZINC000001530973    0.0800
32     H32    -1.1675    6.0520    0.9570 H        1 ZINC000001530973    0.0700
33     H33     0.5704    5.9187    1.3180 H        1 ZINC000001530973    0.0900
34     H34     0.0986    7.5841    3.1370 H        1 ZINC000001530973    0.1400
35     H35    -0.4284    9.2318    2.7178 H        1 ZINC000001530973    0.1200
36     H36    -3.0484    9.5435    2.0039 H        1 ZINC000001530973    0.2200
37     H37    -5.1478    8.0867    2.6056 H        1 ZINC000001530973    0.2200
38     H38    -1.7480    5.7561    3.4246 H        1 ZINC000001530973    0.2600
39     H39     0.4847   13.0254   -0.8321 H        1 ZINC000001530973    0.1500
40     H40     0.9899   14.1018    1.3224 H        1 ZINC000001530973    0.1500
41     H41     1.7473   12.7484    3.2330 H        1 ZINC000001530973    0.1500
42     H42     2.1407    4.4274   -0.6657 H        1 ZINC000001530973    0.1300
43     H43     2.0578    2.0152   -1.1520 H        1 ZINC000001530973    0.1400
@<TRIPOS>BOND
1     1     2     1
2     2     27    ar
3     2     3     ar
4     3     4     ar
5     3     28    1
6     4     5     ar
7     4     29    1
8     5     6     1
9     5     26    ar
10    6     7     1
11    6     30    1
12    6     31    1
13    7     8     1
14    7     32    1
15    7     33    1
16    8     9     1
17    8     10    1
18    8     17    1
19    10    11    1
20    10    34    1
21    10    35    1
22    11    16    ar
23    11    12    1
24    12    13    2
25    12    36    1
26    13    14    1
27    13    37    1
28    14    15    1
29    14    16    ar
30    16    38    1
31    17    18    1
32    18    24    ar
33    18    19    ar
34    19    20    1
35    19    21    ar
36    21    22    ar
37    21    39    1
38    22    23    ar
39    22    40    1
40    23    24    ar
41    23    41    1
42    24    25    1
43    26    27    ar
44    26    42    1
45    27    43    1
@<TRIPOS>SUBSTRUCTURE
1   ZINC000001530973 1     RESIDUE    1   A     ZIN   1
