@<TRIPOS>MOLECULE
ZINC000000967566
29    30    1     0     0
SMALL
USER_CHARGES
@<TRIPOS>ATOM
1      C1     -0.0187    1.5258    0.0104 C.3      1 ZINC000000967566   -0.1400
2      C2      0.0021   -0.0041    0.0020 C.3      1 ZINC000000967566    0.1200
3      C3      0.7212   -0.5000   -1.2557 C.3      1 ZINC000000967566   -0.1400
4      C4      0.7141   -2.0316   -1.2653 C.3      1 ZINC000000967566   -0.1200
5      C5     -0.0146   -2.5301   -0.0118 C.3      1 ZINC000000967566   -0.1100
6      C6      0.7448   -2.0454    1.2287 C.3      1 ZINC000000967566   -0.1200
7      C7      0.7424   -0.5135    1.2421 C.3      1 ZINC000000967566   -0.1400
8      C8     -1.4260   -1.9332    0.0082 C.3      1 ZINC000000967566    0.1200
9      C9     -2.1927   -2.3936   -1.2332 C.3      1 ZINC000000967566   -0.1600
10     C10    -2.1611   -2.4021    1.2655 C.3      1 ZINC000000967566   -0.1600
11     O11    -1.3383   -0.5009    0.0152 O.3      1 ZINC000000967566   -0.3600
12     H12     1.0039    1.9031    0.0027 H        1 ZINC000000967566    0.0700
13     H13    -0.5459    1.8868   -0.8726 H        1 ZINC000000967566    0.0600
14     H14    -0.5289    1.8773    0.9072 H        1 ZINC000000967566    0.0600
15     H15     0.2059   -0.1276   -2.1410 H        1 ZINC000000967566    0.0700
16     H16     1.7501   -0.1403   -1.2531 H        1 ZINC000000967566    0.0700
17     H17     0.1962   -2.3890   -2.1553 H        1 ZINC000000967566    0.0700
18     H18     1.7393   -2.4017   -1.2634 H        1 ZINC000000967566    0.0700
19     H19    -0.0617   -3.6191   -0.0172 H        1 ZINC000000967566    0.0900
20     H20     0.2536   -2.4194    2.1270 H        1 ZINC000000967566    0.0700
21     H21     1.7719   -2.4088    1.1934 H        1 ZINC000000967566    0.0700
22     H22     1.7689   -0.1472    1.2300 H        1 ZINC000000967566    0.0700
23     H23     0.2375   -0.1576    2.1401 H        1 ZINC000000967566    0.0700
24     H24    -2.2586   -3.4816   -1.2368 H        1 ZINC000000967566    0.0700
25     H25    -3.1965   -1.9689   -1.2186 H        1 ZINC000000967566    0.0600
26     H26    -1.6693   -2.0584   -2.1286 H        1 ZINC000000967566    0.0600
27     H27    -1.6151   -2.0729    2.1496 H        1 ZINC000000967566    0.0600
28     H28    -3.1648   -1.9773    1.2792 H        1 ZINC000000967566    0.0600
29     H29    -2.2269   -3.4901    1.2633 H        1 ZINC000000967566    0.0600
@<TRIPOS>BOND
1     1     2     1
2     1     12    1
3     1     13    1
4     1     14    1
5     2     7     1
6     2     11    1
7     2     3     1
8     3     4     1
9     3     15    1
10    3     16    1
11    4     5     1
12    4     17    1
13    4     18    1
14    5     6     1
15    5     8     1
16    5     19    1
17    6     7     1
18    6     20    1
19    6     21    1
20    7     22    1
21    7     23    1
22    8     9     1
23    8     10    1
24    8     11    1
25    9     24    1
26    9     25    1
27    9     26    1
28    10    27    1
29    10    28    1
30    10    29    1
@<TRIPOS>SUBSTRUCTURE
1   ZINC000000967566 1     RESIDUE    1   A     ZIN   1
