@<TRIPOS>MOLECULE
ZINC000003816514
61    64    1     0     0
SMALL
USER_CHARGES
@<TRIPOS>ATOM
1      C1     -0.0187    1.5258    0.0104 C.3      1 ZINC000003816514   -0.1700
2      C2      0.0021   -0.0041    0.0020 C.3      1 ZINC000003816514    0.1300
3      H3      0.5123   -0.3556   -0.8948 H        1 ZINC000003816514    0.0800
4      O4      0.6932   -0.4774    1.1597 O.3      1 ZINC000003816514   -0.3700
5      C5      2.0985   -0.6511    0.9672 C.3      1 ZINC000003816514    0.0300
6      C6      2.7322   -1.1581    2.2642 C.3      1 ZINC000003816514    0.1700
7      C7      2.1989   -2.5318    2.5797 C.ar     1 ZINC000003816514   -0.0700
8      C8      2.8505   -3.6530    2.1010 C.ar     1 ZINC000003816514   -0.1200
9      C9      2.3614   -4.9131    2.3904 C.ar     1 ZINC000003816514   -0.1200
10     C10     1.2208   -5.0520    3.1589 C.ar     1 ZINC000003816514   -0.1200
11     C11     0.5696   -3.9309    3.6384 C.ar     1 ZINC000003816514   -0.1200
12     C12     1.0612   -2.6709    3.3526 C.ar     1 ZINC000003816514   -0.0900
13     C13     4.2516   -1.2282    2.0957 C.3      1 ZINC000003816514   -0.1000
14     C14     4.7900    0.1722    1.7859 C.3      1 ZINC000003816514   -0.1300
15     C15     4.3775    1.1272    2.9040 C.3      1 ZINC000003816514    0.1600
16     C16     5.0481    0.7028    4.2255 C.3      1 ZINC000003816514   -0.1200
17     C17     5.3304    2.0723    4.8873 C.3      1 ZINC000003816514   -0.1600
18     C18     5.4003    3.0390    3.7252 C.2      1 ZINC000003816514    0.5200
19     O19     5.8743    4.1541    3.7767 O.2      1 ZINC000003816514   -0.5300
20     N20     4.8608    2.4808    2.6264 N.am     1 ZINC000003816514   -0.7200
21     C21     2.8602    1.1237    3.0701 C.3      1 ZINC000003816514    0.0500
22     N22     2.4002   -0.2407    3.3618 N.3      1 ZINC000003816514   -0.6600
23     C23    -1.4117   -0.5257    0.0127 C.ar     1 ZINC000003816514   -0.0900
24     C24    -2.1228   -0.5709    1.1973 C.ar     1 ZINC000003816514   -0.0100
25     C25    -3.4197   -1.0494    1.2071 C.ar     1 ZINC000003816514   -0.1800
26     C26    -4.1947   -1.0992    2.4986 C.3      1 ZINC000003816514    0.5100
27     F27    -4.8859    0.1043    2.6743 F        1 ZINC000003816514   -0.1700
28     F28    -5.1070   -2.1589    2.4544 F        1 ZINC000003816514   -0.1700
29     F29    -3.3105   -1.2894    3.5660 F        1 ZINC000003816514   -0.1700
30     C30    -4.0058   -1.4818    0.0322 C.ar     1 ZINC000003816514   -0.0200
31     C31    -3.2949   -1.4361   -1.1525 C.ar     1 ZINC000003816514   -0.1800
32     C32    -3.9337   -1.9079   -2.4332 C.3      1 ZINC000003816514    0.5100
33     F33    -5.2374   -2.3426   -2.1715 F        1 ZINC000003816514   -0.1700
34     F34    -3.9692   -0.8539   -3.3525 F        1 ZINC000003816514   -0.1700
35     F35    -3.1874   -2.9652   -2.9647 F        1 ZINC000003816514   -0.1700
36     C36    -1.9995   -0.9536   -1.1630 C.ar     1 ZINC000003816514   -0.0300
37     H37     1.0039    1.9031    0.0027 H        1 ZINC000003816514    0.0600
38     H38    -0.5459    1.8868   -0.8726 H        1 ZINC000003816514    0.0700
39     H39    -0.5289    1.8773    0.9072 H        1 ZINC000003816514    0.0700
40     H40     2.2694   -1.3764    0.1716 H        1 ZINC000003816514    0.0600
41     H41     2.5481    0.3029    0.6919 H        1 ZINC000003816514    0.0600
42     H42     3.7417   -3.5444    1.5005 H        1 ZINC000003816514    0.1200
43     H43     2.8701   -5.7890    2.0157 H        1 ZINC000003816514    0.1200
44     H44     0.8382   -6.0365    3.3844 H        1 ZINC000003816514    0.1200
45     H45    -0.3217   -4.0395    4.2386 H        1 ZINC000003816514    0.1200
46     H46     0.5525   -1.7950    3.7273 H        1 ZINC000003816514    0.1200
47     H47     4.7035   -1.5965    3.0167 H        1 ZINC000003816514    0.0900
48     H48     4.4961   -1.9021    1.2746 H        1 ZINC000003816514    0.0800
49     H49     5.8774    0.1377    1.7191 H        1 ZINC000003816514    0.0800
50     H50     4.3770    0.5199    0.8390 H        1 ZINC000003816514    0.0700
51     H51     4.3679    0.1076    4.8348 H        1 ZINC000003816514    0.1100
52     H52     5.9753    0.1619    4.0366 H        1 ZINC000003816514    0.0800
53     H53     4.5186    2.3446    5.5617 H        1 ZINC000003816514    0.1000
54     H54     6.2801    2.0490    5.4218 H        1 ZINC000003816514    0.1000
55     H55     4.7999    2.9184    1.7629 H        1 ZINC000003816514    0.4100
56     H56     2.5835    1.7837    3.8922 H        1 ZINC000003816514    0.0800
57     H57     2.3934    1.4752    2.1499 H        1 ZINC000003816514    0.0400
58     H58     1.4105   -0.2545    3.5578 H        1 ZINC000003816514    0.3600
59     H59    -1.6650   -0.2328    2.1152 H        1 ZINC000003816514    0.1500
60     H60    -5.0190   -1.8556    0.0399 H        1 ZINC000003816514    0.1500
61     H61    -1.4441   -0.9179   -2.0886 H        1 ZINC000003816514    0.1400
@<TRIPOS>BOND
1     1     2     1
2     1     37    1
3     1     38    1
4     1     39    1
5     2     3     1
6     2     4     1
7     2     23    1
8     4     5     1
9     5     6     1
10    5     40    1
11    5     41    1
12    6     22    1
13    6     7     1
14    6     13    1
15    7     12    ar
16    7     8     ar
17    8     9     ar
18    8     42    1
19    9     10    ar
20    9     43    1
21    10    11    ar
22    10    44    1
23    11    12    ar
24    11    45    1
25    12    46    1
26    13    14    1
27    13    47    1
28    13    48    1
29    14    15    1
30    14    49    1
31    14    50    1
32    15    20    1
33    15    16    1
34    15    21    1
35    16    17    1
36    16    51    1
37    16    52    1
38    17    18    1
39    17    53    1
40    17    54    1
41    18    19    2
42    18    20    am
43    20    55    1
44    21    22    1
45    21    56    1
46    21    57    1
47    22    58    1
48    23    36    ar
49    23    24    ar
50    24    25    ar
51    24    59    1
52    25    26    1
53    25    30    ar
54    26    27    1
55    26    28    1
56    26    29    1
57    30    31    ar
58    30    60    1
59    31    32    1
60    31    36    ar
61    32    33    1
62    32    34    1
63    32    35    1
64    36    61    1
@<TRIPOS>SUBSTRUCTURE
1   ZINC000003816514 1     RESIDUE    1   A     ZIN   1
