@<TRIPOS>MOLECULE
ZINC000000538627
49    51    1     0     0
SMALL
USER_CHARGES
@<TRIPOS>ATOM
1      C1     -1.1230   -0.4240   -0.2604 C.3      1 ZINC000000538627    0.0300
2      O2      0.2023    0.0287    0.0239 O.3      1 ZINC000000538627   -0.3600
3      C3      0.7399   -0.4788    1.2468 C.3      1 ZINC000000538627    0.2200
4      C4      0.7939   -1.9836    1.1856 C.ar     1 ZINC000000538627   -0.0900
5      C5      0.6620   -2.7276    2.3431 C.ar     1 ZINC000000538627   -0.1000
6      C6      0.7115   -4.1079    2.2870 C.ar     1 ZINC000000538627   -0.1200
7      C7      0.8925   -4.7443    1.0732 C.ar     1 ZINC000000538627   -0.1200
8      C8      1.0235   -4.0003   -0.0844 C.ar     1 ZINC000000538627   -0.1200
9      C9      0.9697   -2.6201   -0.0289 C.ar     1 ZINC000000538627   -0.1000
10     C10     2.1305    0.0659    1.4485 C.ar     1 ZINC000000538627   -0.0400
11     C11     2.6193    0.2568    2.7274 C.ar     1 ZINC000000538627   -0.0600
12     C12     3.8948    0.7565    2.9123 C.ar     1 ZINC000000538627   -0.1200
13     C13     4.6817    1.0649    1.8185 C.ar     1 ZINC000000538627   -0.1200
14     C14     4.1932    0.8732    0.5396 C.ar     1 ZINC000000538627   -0.1300
15     C15     2.9193    0.3695    0.3546 C.ar     1 ZINC000000538627   -0.0900
16     C16    -0.1510   -0.0475    2.4135 C.3      1 ZINC000000538627    0.0000
17     H17     0.3104   -0.3492    3.3538 H        1 ZINC000000538627    0.0900
18     O18    -1.4316   -0.6694    2.2902 O.3      1 ZINC000000538627   -0.2500
19     C19    -2.1002   -0.9332    3.4383 C.ar     1 ZINC000000538627    0.5300
20     N20    -1.5499   -0.6045    4.5958 N.ar     1 ZINC000000538627   -0.5700
21     C21    -2.1755   -0.8479    5.7359 C.ar     1 ZINC000000538627    0.2100
22     C22    -1.5417   -0.4698    7.0497 C.3      1 ZINC000000538627   -0.1100
23     C23    -3.4213   -1.4545    5.7067 C.ar     1 ZINC000000538627   -0.2900
24     C24    -3.9677   -1.7852    4.4767 C.ar     1 ZINC000000538627    0.2100
25     C25    -5.3198   -2.4457    4.3954 C.3      1 ZINC000000538627   -0.1000
26     N26    -3.2901   -1.5085    3.3746 N.ar     1 ZINC000000538627   -0.5400
27     C27    -0.3158    1.4503    2.3926 C.2      1 ZINC000000538627    0.5000
28     O28    -1.4128    1.9400    2.1845 O.co2    1 ZINC000000538627   -0.6800
29     O29     0.6478    2.1724    2.5839 O.co2    1 ZINC000000538627   -0.6700
30     H30    -1.8190    0.0192    0.4519 H        1 ZINC000000538627    0.0800
31     H31    -1.3995   -0.1262   -1.2718 H        1 ZINC000000538627    0.0700
32     H32    -1.1614   -1.5102   -0.1782 H        1 ZINC000000538627    0.0400
33     H33     0.5206   -2.2305    3.2914 H        1 ZINC000000538627    0.1200
34     H34     0.6092   -4.6892    3.1915 H        1 ZINC000000538627    0.1200
35     H35     0.9319   -5.8227    1.0295 H        1 ZINC000000538627    0.1200
36     H36     1.1653   -4.4974   -1.0327 H        1 ZINC000000538627    0.1200
37     H37     1.0721   -2.0388   -0.9333 H        1 ZINC000000538627    0.1300
38     H38     2.0045    0.0158    3.5820 H        1 ZINC000000538627    0.1200
39     H39     4.2765    0.9062    3.9115 H        1 ZINC000000538627    0.1200
40     H40     5.6780    1.4560    1.9630 H        1 ZINC000000538627    0.1100
41     H41     4.8079    1.1145   -0.3150 H        1 ZINC000000538627    0.1200
42     H42     2.5376    0.2197   -0.6446 H        1 ZINC000000538627    0.1200
43     H43    -1.8376    0.5446    7.3173 H        1 ZINC000000538627    0.0900
44     H44    -1.8722   -1.1611    7.8249 H        1 ZINC000000538627    0.0800
45     H45    -0.4567   -0.5193    6.9573 H        1 ZINC000000538627    0.0800
46     H46    -3.9542   -1.6652    6.6221 H        1 ZINC000000538627    0.1400
47     H47    -6.0940   -1.6814    4.3266 H        1 ZINC000000538627    0.0800
48     H48    -5.3599   -3.0839    3.5127 H        1 ZINC000000538627    0.0800
49     H49    -5.4836   -3.0494    5.2880 H        1 ZINC000000538627    0.0800
@<TRIPOS>BOND
1     1     2     1
2     1     30    1
3     1     31    1
4     1     32    1
5     2     3     1
6     3     4     1
7     3     10    1
8     3     16    1
9     4     9     ar
10    4     5     ar
11    5     6     ar
12    5     33    1
13    6     7     ar
14    6     34    1
15    7     8     ar
16    7     35    1
17    8     9     ar
18    8     36    1
19    9     37    1
20    10    15    ar
21    10    11    ar
22    11    12    ar
23    11    38    1
24    12    13    ar
25    12    39    1
26    13    14    ar
27    13    40    1
28    14    15    ar
29    14    41    1
30    15    42    1
31    16    17    1
32    16    18    1
33    16    27    1
34    18    19    1
35    19    26    ar
36    19    20    ar
37    20    21    ar
38    21    22    1
39    21    23    ar
40    22    43    1
41    22    44    1
42    22    45    1
43    23    24    ar
44    23    46    1
45    24    25    1
46    24    26    ar
47    25    47    1
48    25    48    1
49    25    49    1
50    27    28    ar
51    27    29    ar
@<TRIPOS>SUBSTRUCTURE
1   ZINC000000538627 1     RESIDUE    1   A     ZIN   1
