@<TRIPOS>MOLECULE
ZINC000001530756
39    39    1     0     0
SMALL
USER_CHARGES
@<TRIPOS>ATOM
1      C1      0.7115    1.5906   -2.2396 C.3      1 ZINC000001530756   -0.1900
2      C2      0.3644    0.1067   -2.3753 C.3      1 ZINC000001530756   -0.0200
3      N3      0.8708   -0.6237   -1.2057 N.4      1 ZINC000001530756   -0.3800
4      H4      1.8593   -0.4495   -1.1025 H        1 ZINC000001530756    0.4300
5      C5      0.1650   -0.1681   -0.0006 C.3      1 ZINC000001530756   -0.0200
6      C6      0.7982   -0.8108    1.2350 C.3      1 ZINC000001530756   -0.1900
7      C7      0.6440   -2.0631   -1.3913 C.3      1 ZINC000001530756   -0.0300
8      C8      1.4803   -2.5633   -2.5708 C.3      1 ZINC000001530756    0.1000
9      N9      1.3488   -4.0183   -2.6804 N.am     1 ZINC000001530756   -0.7400
10     C10     2.0021   -4.6824   -3.6544 C.2      1 ZINC000001530756    0.5800
11     O11     2.7006   -4.0740   -4.4421 O.2      1 ZINC000001530756   -0.5300
12     C12     1.8697   -6.1475   -3.7648 C.ar     1 ZINC000001530756   -0.2200
13     C13     1.0625   -6.8478   -2.8636 C.ar     1 ZINC000001530756   -0.0300
14     C14     0.9407   -8.2144   -2.9694 C.ar     1 ZINC000001530756   -0.2100
15     C15     1.6204   -8.8996   -3.9728 C.ar     1 ZINC000001530756    0.2600
16     N16     1.4949  -10.2804   -4.0775 N.pl3    1 ZINC000001530756   -0.8600
17     C17     2.4250   -8.2051   -4.8719 C.ar     1 ZINC000001530756   -0.2100
18     C18     2.5467   -6.8378   -4.7745 C.ar     1 ZINC000001530756    0.0000
19     H19     0.2524    1.9899   -1.3352 H        1 ZINC000001530756    0.0800
20     H20     1.7936    1.7066   -2.1794 H        1 ZINC000001530756    0.0800
21     H21     0.3357    2.1325   -3.1075 H        1 ZINC000001530756    0.1100
22     H22    -0.7178   -0.0093   -2.4355 H        1 ZINC000001530756    0.1300
23     H23     0.8234   -0.2926   -3.2797 H        1 ZINC000001530756    0.1300
24     H24     0.2392    0.9167    0.0757 H        1 ZINC000001530756    0.1400
25     H25    -0.8842   -0.4569   -0.0630 H        1 ZINC000001530756    0.1300
26     H26     1.8322   -0.4787    1.3277 H        1 ZINC000001530756    0.0800
27     H27     0.2408   -0.5159    2.1240 H        1 ZINC000001530756    0.1100
28     H28     0.7728   -1.8958    1.1336 H        1 ZINC000001530756    0.0800
29     H29     0.9360   -2.5966   -0.4867 H        1 ZINC000001530756    0.1400
30     H30    -0.4122   -2.2414   -1.5932 H        1 ZINC000001530756    0.1400
31     H31     1.1274   -2.0963   -3.4903 H        1 ZINC000001530756    0.0900
32     H32     2.5267   -2.3041   -2.4100 H        1 ZINC000001530756    0.0900
33     H33     0.7916   -4.5036   -2.0521 H        1 ZINC000001530756    0.4100
34     H34     0.5353   -6.3168   -2.0847 H        1 ZINC000001530756    0.1200
35     H35     0.3175   -8.7559   -2.2732 H        1 ZINC000001530756    0.1300
36     H36     0.9342  -10.7653   -3.4517 H        1 ZINC000001530756    0.4000
37     H37     1.9679  -10.7589   -4.7762 H        1 ZINC000001530756    0.4100
38     H38     2.9510   -8.7394   -5.6492 H        1 ZINC000001530756    0.1300
39     H39     3.1708   -6.2996   -5.4725 H        1 ZINC000001530756    0.1400
@<TRIPOS>BOND
1     1     2     1
2     1     19    1
3     1     20    1
4     1     21    1
5     2     3     1
6     2     22    1
7     2     23    1
8     3     4     1
9     3     5     1
10    3     7     1
11    5     6     1
12    5     24    1
13    5     25    1
14    6     26    1
15    6     27    1
16    6     28    1
17    7     8     1
18    7     29    1
19    7     30    1
20    8     9     1
21    8     31    1
22    8     32    1
23    9     10    am
24    9     33    1
25    10    11    2
26    10    12    1
27    12    18    ar
28    12    13    ar
29    13    14    ar
30    13    34    1
31    14    15    ar
32    14    35    1
33    15    16    1
34    15    17    ar
35    16    36    1
36    16    37    1
37    17    18    ar
38    17    38    1
39    18    39    1
@<TRIPOS>SUBSTRUCTURE
1   ZINC000001530756 1     RESIDUE    1   A     ZIN   1
