@<TRIPOS>MOLECULE
ZINC000000156395
28   28    0    0    0
SMALL
USER_CHARGES
NO_NAME
@<TRIPOS>ATOM
1 C1       -0.0184     1.5028     0.0103 C.3    1 <0>      -0.1700
2 C2        0.0021    -0.0041     0.0020 C.2    1 <0>       0.5000
3 O3        1.0605    -0.5961    -0.0113 O.2    1 <0>      -0.5600
4 N4       -1.1558    -0.6938     0.0094 N.am   1 <0>      -0.7000
5 C5       -1.1360    -2.1586     0.0013 C.3    1 <0>       0.0800
6 H6       -0.2837    -2.5136     0.5807 H      1 <0>       0.0800
7 C7       -2.4304    -2.6896     0.6205 C.3    1 <0>      -0.0800
8 C8       -2.4884    -2.2997     2.0750 C.ar   1 <0>      -0.0700
9 C9       -1.9511    -3.1363     3.0358 C.ar   1 <0>      -0.1000
10 C10      -2.0029    -2.7812     4.3698 C.ar   1 <0>      -0.1400
11 C11      -2.5943    -1.5837     4.7451 C.ar   1 <0>       0.0900
12 O12      -2.6462    -1.2318     6.0567 O.3    1 <0>      -0.5000
13 C13      -3.1323    -0.7457     3.7791 C.ar   1 <0>      -0.1400
14 C14      -3.0737    -1.1032     2.4460 C.ar   1 <0>      -0.1000
15 C15      -1.0188    -2.6516    -1.4179 C.2    1 <0>       0.4900
16 O16      -0.4571    -3.7081    -1.6519 O.co2  1 <0>      -0.6900
17 O17      -1.4858    -1.9939    -2.3322 O.co2  1 <0>      -0.6900
18 H18       1.0042     1.8801     0.0026 H      1 <0>       0.0800
19 H19      -0.5455     1.8639    -0.8728 H      1 <0>       0.0800
20 H20      -0.5286     1.8543     0.9071 H      1 <0>       0.0800
21 H21      -2.0023    -0.2203     0.0200 H      1 <0>       0.3900
22 H22      -3.2856    -2.2637     0.0958 H      1 <0>       0.0800
23 H23      -2.4555    -3.7759     0.5343 H      1 <0>       0.0900
24 H24      -1.4907    -4.0685     2.7431 H      1 <0>       0.1300
25 H25      -1.5837    -3.4354     5.1199 H      1 <0>       0.1200
26 H26      -1.8824    -0.7206     6.3573 H      1 <0>       0.3900
27 H27      -3.5936     0.1869     4.0688 H      1 <0>       0.1200
28 H28      -3.4920    -0.4511     1.6936 H      1 <0>       0.1200
@<TRIPOS>BOND
1    1    2 1
2    1   18 1
3    1   19 1
4    1   20 1
5    2    3 2
6    2    4 am
7    4    5 1
8    4   21 1
9    5    6 1
10    5    7 1
11    5   15 1
12    7    8 1
13    7   22 1
14    7   23 1
15    8   14 ar
16    8    9 ar
17    9   10 ar
18    9   24 1
19   10   11 ar
20   10   25 1
21   11   12 1
22   11   13 ar
23   12   26 1
24   13   14 ar
25   13   27 1
26   14   28 1
27   15   16 ar
28   15   17 ar
