@<TRIPOS>MOLECULE
ZINC000150338699
94    99    1     0     0
SMALL
USER_CHARGES
@<TRIPOS>ATOM
1      C1     -0.0159    1.3246    0.0093 C.2      1 ZINC000150338699   -0.1700
2      C2      0.0021   -0.0041    0.0020 C.2      1 ZINC000150338699   -0.1000
3      C3      1.2885   -0.7237   -0.0141 C.2      1 ZINC000150338699   -0.0400
4      C4      2.3762   -0.4830   -0.8967 C.2      1 ZINC000150338699    0.0300
5      C5      2.3956    0.5223   -1.8429 C.2      1 ZINC000150338699    0.0500
6      C6      3.4714    0.7147   -2.7222 C.2      1 ZINC000150338699    0.0300
7      N7      4.5337   -0.0773   -2.8907 N.2      1 ZINC000150338699   -0.5000
8      C8      5.2860    0.3909   -3.8890 C.2      1 ZINC000150338699    0.0600
9      C9      6.4393   -0.1888   -4.4384 C.2      1 ZINC000150338699    0.0400
10     C10     7.0541   -1.2964   -3.8809 C.2      1 ZINC000150338699    0.0500
11     N11     6.6900   -1.9797   -2.7350 N.pl3    1 ZINC000150338699   -0.5500
12     C12     7.6610   -2.9169   -2.4714 C.2      1 ZINC000150338699    0.2400
13     C13     7.7805   -3.7433   -1.3599 C.2      1 ZINC000150338699   -0.2300
14     C14     6.8496   -3.8116   -0.3411 C.2      1 ZINC000150338699    0.2300
15     N15     5.6734   -3.2102   -0.2578 N.2      1 ZINC000150338699   -0.5500
16     C16     4.9235   -3.6076    0.7736 C.2      1 ZINC000150338699    0.1900
17     C17     3.6509   -3.1659    1.1317 C.2      1 ZINC000150338699   -0.1800
18     C18     2.9572   -2.1615    0.4683 C.2      1 ZINC000150338699    0.2000
19     C19     1.6616   -1.7536    0.8310 C.2      1 ZINC000150338699   -0.1500
20     C20     0.8258   -2.3379    1.9405 C.3      1 ZINC000150338699   -0.0800
21     N21     3.3643   -1.3996   -0.6022 N.pl3    1 ZINC000150338699   -0.5300
22     C22     5.6454   -4.6320    1.5196 C.2      1 ZINC000150338699   -0.0500
23     C23     5.3132   -5.4587    2.5278 C.2      1 ZINC000150338699   -0.1400
24     C24     6.2594   -6.4555    2.8791 C.2      1 ZINC000150338699    0.0200
25     C25     7.2892   -6.7636    2.0495 C.2      1 ZINC000150338699   -0.1900
26     C26     8.2221   -7.7554    2.4366 C.2      1 ZINC000150338699    0.5200
27     O27     8.0972   -8.3241    3.5050 O.2      1 ZINC000150338699   -0.5100
28     O28     9.2500   -8.0704    1.6205 O.3      1 ZINC000150338699   -0.3500
29     C29    10.1530   -9.0804    2.0747 C.3      1 ZINC000150338699    0.0400
30     C30     7.4565   -6.0627    0.7142 C.3      1 ZINC000150338699   -0.0100
31     H31     8.4975   -6.1133    0.3949 H        1 ZINC000150338699    0.1400
32     C32     6.5693   -6.7065   -0.3199 C.2      1 ZINC000150338699    0.4700
33     O33     5.7188   -6.0538   -0.8771 O.2      1 ZINC000150338699   -0.4800
34     O34     6.7239   -8.0052   -0.6220 O.3      1 ZINC000150338699   -0.3500
35     C35     5.8342   -8.5586   -1.6274 C.3      1 ZINC000150338699    0.0400
36     C36     7.0460   -4.6110    0.9220 C.3      1 ZINC000150338699   -0.0500
37     C37     8.0312   -3.8990    1.8555 C.3      1 ZINC000150338699   -0.1300
38     C38     8.5661   -2.9156   -3.5522 C.2      1 ZINC000150338699   -0.1500
39     C39     9.7388   -3.8461   -3.7255 C.3      1 ZINC000150338699   -0.0900
40     C40     8.1966   -1.9288   -4.4106 C.2      1 ZINC000150338699   -0.0500
41     C41     8.8873   -1.5733   -5.7020 C.3      1 ZINC000150338699   -0.0600
42     C42     8.1963   -2.2898   -6.8640 C.3      1 ZINC000150338699   -0.1100
43     C43     8.8870   -1.9344   -8.1553 C.2      1 ZINC000150338699    0.4600
44     O44     9.8347   -1.1849   -8.1472 O.2      1 ZINC000150338699   -0.5000
45     O45     8.4494   -2.4504   -9.3146 O.3      1 ZINC000150338699   -0.3600
46     C46     9.1627   -2.0643  -10.5190 C.3      1 ZINC000150338699    0.0300
47     C47     4.7222    1.6195   -4.3335 C.2      1 ZINC000150338699   -0.1200
48     C48     5.2731    2.5241   -5.4055 C.3      1 ZINC000150338699   -0.0400
49     C49     6.3185    3.4600   -4.7954 C.3      1 ZINC000150338699   -0.1700
50     C50     6.8693    4.3646   -5.8674 C.2      1 ZINC000150338699    0.4900
51     O51     6.4634    4.2696   -7.0132 O.co2    1 ZINC000150338699   -0.7000
52     O52     7.7209    5.1916   -5.5890 O.co2    1 ZINC000150338699   -0.7100
53     C53     3.5963    1.8197   -3.6099 C.2      1 ZINC000150338699   -0.1500
54     C54     2.6537    2.9901   -3.7231 C.3      1 ZINC000150338699   -0.0900
55     H55     0.9119    1.8773    0.0034 H        1 ZINC000150338699    0.1000
56     H56    -0.9585    1.8518    0.0167 H        1 ZINC000150338699    0.1100
57     H57    -0.9258   -0.5567    0.0079 H        1 ZINC000150338699    0.1300
58     H58     1.5399    1.1921   -1.9071 H        1 ZINC000150338699    0.1600
59     H59     6.8660    0.2536   -5.3359 H        1 ZINC000150338699    0.1600
60     H60     5.8898   -1.8247   -2.2092 H        1 ZINC000150338699    0.4400
61     H61     8.6649   -4.3792   -1.2847 H        1 ZINC000150338699    0.1400
62     H62     3.1654   -3.6423    1.9862 H        1 ZINC000150338699    0.1500
63     H63     1.0233   -1.7984    2.8668 H        1 ZINC000150338699    0.0700
64     H64    -0.2302   -2.2481    1.6858 H        1 ZINC000150338699    0.0700
65     H65     1.0798   -3.3898    2.0714 H        1 ZINC000150338699    0.0700
66     H66     4.2071   -1.4924   -1.0732 H        1 ZINC000150338699    0.4400
67     H67     4.3700   -5.3673    3.0459 H        1 ZINC000150338699    0.1500
68     H68     6.1594   -6.9764    3.8198 H        1 ZINC000150338699    0.1500
69     H69    10.9301   -9.2363    1.3264 H        1 ZINC000150338699    0.1000
70     H70    10.6099   -8.7642    3.0125 H        1 ZINC000150338699    0.0600
71     H71     9.6079  -10.0112    2.2318 H        1 ZINC000150338699    0.0600
72     H72     4.8014   -8.4562   -1.2945 H        1 ZINC000150338699    0.0600
73     H73     5.9683   -8.0215   -2.5663 H        1 ZINC000150338699    0.0600
74     H74     6.0653   -9.6134   -1.7760 H        1 ZINC000150338699    0.1000
75     H75     9.0292   -3.9241    1.4179 H        1 ZINC000150338699    0.0800
76     H76     7.7197   -2.8633    1.9908 H        1 ZINC000150338699    0.0700
77     H77     8.0454   -4.4033    2.8217 H        1 ZINC000150338699    0.0700
78     H78     9.7868   -4.5316   -2.8795 H        1 ZINC000150338699    0.0700
79     H79     9.6182   -4.4148   -4.6476 H        1 ZINC000150338699    0.0700
80     H80    10.6596   -3.2649   -3.7749 H        1 ZINC000150338699    0.0700
81     H81     8.8354   -0.4957   -5.8572 H        1 ZINC000150338699    0.1000
82     H82     9.9311   -1.8835   -5.6531 H        1 ZINC000150338699    0.0900
83     H83     8.2483   -3.3675   -6.7088 H        1 ZINC000150338699    0.1100
84     H84     7.1525   -1.9797   -6.9129 H        1 ZINC000150338699    0.1100
85     H85     8.7079   -2.5503  -11.3822 H        1 ZINC000150338699    0.1000
86     H86     9.1099   -0.9825  -10.6415 H        1 ZINC000150338699    0.0700
87     H87    10.2057   -2.3703  -10.4374 H        1 ZINC000150338699    0.0600
88     H88     5.7366    1.9215   -6.1865 H        1 ZINC000150338699    0.0700
89     H89     4.4632    3.1143   -5.8344 H        1 ZINC000150338699    0.0700
90     H90     5.8549    4.0626   -4.0143 H        1 ZINC000150338699    0.0500
91     H91     7.1283    2.8698   -4.3665 H        1 ZINC000150338699    0.0500
92     H92     1.8813    2.7647   -4.4584 H        1 ZINC000150338699    0.0700
93     H93     2.1899    3.1781   -2.7548 H        1 ZINC000150338699    0.0600
94     H94     3.2083    3.8740   -4.0381 H        1 ZINC000150338699    0.0700
@<TRIPOS>BOND
1     1     2     2
2     1     55    1
3     1     56    1
4     2     3     1
5     2     57    1
6     3     19    1
7     3     4     2
8     4     21    1
9     4     5     1
10    5     6     2
11    5     58    1
12    6     53    1
13    6     7     1
14    7     8     2
15    8     9     1
16    8     47    1
17    9     10    2
18    9     59    1
19    10    40    1
20    10    11    1
21    11    12    1
22    11    60    1
23    12    13    2
24    12    38    1
25    13    14    1
26    13    61    1
27    14    36    1
28    14    15    2
29    15    16    1
30    16    17    2
31    16    22    1
32    17    18    1
33    17    62    1
34    18    19    2
35    18    21    1
36    19    20    1
37    20    63    1
38    20    64    1
39    20    65    1
40    21    66    1
41    22    36    1
42    22    23    2
43    23    24    1
44    23    67    1
45    24    25    2
46    24    68    1
47    25    26    1
48    25    30    1
49    26    27    2
50    26    28    1
51    28    29    1
52    29    69    1
53    29    70    1
54    29    71    1
55    30    31    1
56    30    32    1
57    30    36    1
58    32    33    2
59    32    34    1
60    34    35    1
61    35    72    1
62    35    73    1
63    35    74    1
64    36    37    1
65    37    75    1
66    37    76    1
67    37    77    1
68    38    39    1
69    38    40    2
70    39    78    1
71    39    79    1
72    39    80    1
73    40    41    1
74    41    42    1
75    41    81    1
76    41    82    1
77    42    43    1
78    42    83    1
79    42    84    1
80    43    44    2
81    43    45    1
82    45    46    1
83    46    85    1
84    46    86    1
85    46    87    1
86    47    48    1
87    47    53    2
88    48    49    1
89    48    88    1
90    48    89    1
91    49    50    1
92    49    90    1
93    49    91    1
94    50    51    ar
95    50    52    ar
96    53    54    1
97    54    92    1
98    54    93    1
99    54    94    1
@<TRIPOS>SUBSTRUCTURE
1   ZINC000150338699 1     RESIDUE    1   A     ZIN   1
