@<TRIPOS>MOLECULE
ZINC000003920266
63   67    0    0    0
SMALL
NO_CHARGES
@<TRIPOS>ATOM
1 C1             1.2658     0.7633    -0.5494 C.3
2 C2             0.7323    -0.1512     0.5230 C.2
3 O3             1.4364    -0.4681     1.4515 O.2
4 C4            -0.6798    -0.6703     0.4367 C.3
5 O5            -1.5320     0.3406    -0.1053 O.3
6 C6            -1.1689    -1.0646     1.8284 C.3
7 C7            -0.4301    -2.2794     2.3282 C.ar
8 C8            -0.4781    -2.5407     3.7048 C.ar
9 O9            -1.1665    -1.7083     4.5246 O.3
10 C10            0.1757    -3.6494     4.2358 C.ar
11 C11            0.8887    -4.5111     3.3762 C.ar
12 C12            1.5782    -5.6901     3.9315 C.2
13 O13            2.3930    -6.2975     3.2642 O.2
14 C14            1.2666    -6.1246     5.3110 C.ar
15 C15            1.6674    -7.3757     5.7669 C.ar
16 C16            1.3666    -7.7653     7.0607 C.ar
17 C17            0.6703    -6.9191     7.9039 C.ar
18 C18            0.2637    -5.6704     7.4660 C.ar
19 C19            0.5576    -5.2635     6.1691 C.ar
20 C20            0.1302    -3.9335     5.6819 C.2
21 O21           -0.2548    -3.0860     6.4640 O.2
22 C22            0.9301    -4.2358     2.0120 C.ar
23 O23            1.6147    -5.0588     1.1795 O.3
24 C24            0.2682    -3.1142     1.4929 C.ar
25 C25            0.3697    -2.8770     0.0080 C.3
26 H26            1.3469    -2.4523    -0.2220 H
27 O27            0.2238    -4.1216    -0.6788 O.3
28 C28            1.0295    -4.2352    -1.8535 C.3
29 H29            2.0464    -3.9131    -1.6293 H
30 C30            1.0472    -5.6927    -2.3215 C.3
31 C31           -0.3767    -6.1193    -2.6915 C.3
32 H32           -1.0128    -6.0721    -1.8076 H
33 N33           -0.3588    -7.4932    -3.2111 N.4
34 H34            0.0052    -8.1152    -2.5049 H
35 H35           -1.2971    -7.7731    -3.4545 H
36 H36            0.2280    -7.5351    -4.0309 H
37 C37           -0.9195    -5.1707    -3.7647 C.3
38 H38           -1.9523    -5.4331    -3.9942 H
39 O39           -0.1245    -5.2821    -4.9469 O.3
40 C40           -0.8612    -3.7333    -3.2409 C.3
41 H41           -1.5005    -3.6401    -2.3631 H
42 C42           -1.3459    -2.7735    -4.3294 C.3
43 O43            0.4853    -3.4110    -2.8863 O.3
44 C44           -0.7192    -1.9141    -0.4592 C.3
45 H45            2.2963     1.0324    -0.3178 H
46 H46            1.2311     0.2533    -1.5121 H
47 H47            0.6558     1.6655    -0.5940 H
48 H48           -1.5603     1.1533     0.4179 H
49 H49           -1.0025    -0.2351     2.5158 H
50 H50           -2.2354    -1.2856     1.7849 H
51 H51           -2.0943    -1.9530     4.6447 H
52 H52            2.2114    -8.0416     5.1134 H
53 H53            1.6778    -8.7373     7.4139 H
54 H54            0.4417    -7.2347     8.9112 H
55 H55           -0.2801    -5.0143     8.1294 H
56 H56            1.6940    -5.7874    -3.1937 H
57 H57            1.4210    -6.3285    -1.5189 H
58 H58           -0.4120    -4.7078    -5.6698 H
59 H59           -2.3725    -3.0201    -4.6003 H
60 H60           -1.3043    -1.7502    -3.9564 H
61 H61           -0.7062    -2.8666    -5.2071 H
62 H62           -1.6942    -2.3945    -0.3773 H
63 H63           -0.5362    -1.6271    -1.4947 H
@<TRIPOS>BOND
1    1    2 1
2    1   45 1
3    1   46 1
4    1   47 1
5    2    3 2
6    2    4 1
7    4   44 1
8    4    5 1
9    4    6 1
10    5   48 1
11    6    7 1
12    6   49 1
13    6   50 1
14    7   24 ar
15    7    8 ar
16    8    9 1
17    8   10 ar
18    9   51 1
19   10   20 1
20   10   11 ar
21   11   12 1
22   11   22 ar
23   12   13 2
24   12   14 1
25   14   19 ar
26   14   15 ar
27   15   16 ar
28   15   52 1
29   16   17 ar
30   16   53 1
31   17   18 ar
32   17   54 1
33   18   19 ar
34   18   55 1
35   19   20 1
36   20   21 2
37   22   23 1
38   22   24 ar
39   24   25 1
40   25   26 1
41   25   27 1
42   25   44 1
43   27   28 1
44   28   29 1
45   28   43 1
46   28   30 1
47   30   31 1
48   30   56 1
49   30   57 1
50   31   32 1
51   31   33 1
52   31   37 1
53   33   34 1
54   33   35 1
55   33   36 1
56   37   38 1
57   37   39 1
58   37   40 1
59   39   58 1
60   40   41 1
61   40   42 1
62   40   43 1
63   42   59 1
64   42   60 1
65   42   61 1
66   44   62 1
67   44   63 1
