@<TRIPOS>MOLECULE
ZINC000001482184
20   21    0    0    0
SMALL
USER_CHARGES
NO_NAME
@<TRIPOS>ATOM
1 C1       -0.0178     1.4608     0.0101 C.3    1 <0>       0.1000
2 N2        0.0021    -0.0041     0.0020 N.am   1 <0>      -0.4700
3 N3        0.0058    -0.7008    -1.2135 N.2    1 <0>       0.0900
4 N4        0.0232    -1.9899    -1.2265 N.2    1 <0>      -0.1300
5 C5        0.0381    -2.6871    -0.0751 C.2    1 <0>       0.1300
6 C6        0.0579    -4.0467     0.2167 C.2    1 <0>       0.0700
7 C7        0.0687    -5.1459    -0.7568 C.2    1 <0>       0.6000
8 N8        0.0879    -6.4241    -0.3298 N.am   1 <0>      -0.8300
9 O9        0.0602    -4.9028    -1.9491 O.2    1 <0>      -0.5100
10 N10       0.0658    -4.1683     1.5621 N.2    1 <0>      -0.4300
11 C11       0.0524    -2.9878     2.1091 C.2    1 <0>       0.2900
12 N12       0.0349    -2.0351     1.1355 N.am   1 <0>      -0.4700
13 C13       0.0224    -0.6881     1.1659 C.2    1 <0>       0.6800
14 O14       0.0264    -0.0965     2.2275 O.2    1 <0>      -0.4900
15 H15       1.0048     1.8381     0.0023 H      1 <0>       0.0900
16 H16      -0.5450     1.8219    -0.8730 H      1 <0>       0.1100
17 H17      -0.5280     1.8123     0.9069 H      1 <0>       0.1000
18 H18       0.0947    -6.6179     0.6206 H      1 <0>       0.4100
19 H19       0.0950    -7.1503    -0.9729 H      1 <0>       0.4100
20 H20       0.0541    -2.7933     3.1715 H      1 <0>       0.2400
@<TRIPOS>BOND
1    1    2 1
2    1   15 1
3    1   16 1
4    1   17 1
5    2   13 am
6    2    3 1
7    3    4 2
8    4    5 1
9    5   12 1
10    5    6 2
11    6    7 1
12    6   10 1
13    7    8 am
14    7    9 2
15    8   18 1
16    8   19 1
17   10   11 2
18   11   12 1
19   11   20 1
20   12   13 am
21   13   14 2
