@<TRIPOS>MOLECULE
ZINC000001530617
55    56    1     0     0
SMALL
USER_CHARGES
@<TRIPOS>ATOM
1      C1      0.1833    0.8363   -0.1922 C.3      1 ZINC000001530617   -0.2100
2      C2     -0.5479    1.3815    1.0362 C.3      1 ZINC000001530617    0.0200
3      C3     -0.4336    2.9070    1.0624 C.3      1 ZINC000001530617   -0.2000
4      N4     -1.9644    0.9976    0.9732 N.4      1 ZINC000001530617   -0.3800
5      H5     -2.5205    1.6821    1.4634 H        1 ZINC000001530617    0.4200
6      C6     -2.3924    0.9333   -0.4306 C.3      1 ZINC000001530617   -0.0500
7      C7     -2.3216    2.3306   -1.0498 C.3      1 ZINC000001530617   -0.1400
8      C8     -2.9373    2.2996   -2.4501 C.3      1 ZINC000001530617    0.0300
9      C9     -4.3481    1.7762   -2.3671 C.2      1 ZINC000001530617    0.5200
10     N10    -4.5685    0.4625   -2.1621 N.am     1 ZINC000001530617   -0.8600
11     O11    -5.2851    2.5372   -2.4849 O.2      1 ZINC000001530617   -0.4900
12     C12    -2.9514    3.6932   -3.0236 C.ar     1 ZINC000001530617   -0.0800
13     C13    -2.3548    4.7311   -2.3324 C.ar     1 ZINC000001530617   -0.1100
14     C14    -2.3678    6.0093   -2.8585 C.ar     1 ZINC000001530617   -0.1200
15     C15    -2.9770    6.2497   -4.0758 C.ar     1 ZINC000001530617   -0.1000
16     C16    -3.5728    5.2116   -4.7674 C.ar     1 ZINC000001530617   -0.1100
17     C17    -3.5561    3.9325   -4.2434 C.ar     1 ZINC000001530617   -0.0900
18     C18    -2.1188    1.3989   -3.3389 C.ar     1 ZINC000001530617    0.1200
19     C19    -2.6402    0.9735   -4.5458 C.ar     1 ZINC000001530617   -0.1500
20     C20    -1.8788    0.1453   -5.3565 C.ar     1 ZINC000001530617   -0.0600
21     C21    -0.6161   -0.2253   -4.9205 C.ar     1 ZINC000001530617   -0.1600
22     C22    -0.1612    0.2398   -3.7009 C.ar     1 ZINC000001530617    0.1000
23     N23    -0.9111    1.0303   -2.9584 N.ar     1 ZINC000001530617   -0.4900
24     C24    -2.1434   -0.3187    1.6005 C.3      1 ZINC000001530617    0.0200
25     C25    -1.8335   -0.2176    3.0953 C.3      1 ZINC000001530617   -0.1800
26     C26    -3.5888   -0.7824    1.4095 C.3      1 ZINC000001530617   -0.1900
27     H27     1.2364    1.1130   -0.1407 H        1 ZINC000001530617    0.1000
28     H28     0.0937   -0.2497   -0.2161 H        1 ZINC000001530617    0.0700
29     H29    -0.2592    1.2574   -1.0950 H        1 ZINC000001530617    0.1300
30     H30    -0.0992    0.9679    1.9394 H        1 ZINC000001530617    0.1400
31     H31    -0.9587    3.3255    0.2038 H        1 ZINC000001530617    0.0900
32     H32    -0.8780    3.2889    1.9816 H        1 ZINC000001530617    0.0800
33     H33     0.6172    3.1934    1.0206 H        1 ZINC000001530617    0.1100
34     H34    -1.7359    0.2586   -0.9800 H        1 ZINC000001530617    0.1500
35     H35    -3.4170    0.5648   -0.4815 H        1 ZINC000001530617    0.1300
36     H36    -2.8738    3.0330   -0.4256 H        1 ZINC000001530617    0.1000
37     H37    -1.2803    2.6456   -1.1176 H        1 ZINC000001530617    0.1300
38     H38    -3.8210   -0.1367   -2.0096 H        1 ZINC000001530617    0.4000
39     H39    -5.4745    0.1162   -2.1669 H        1 ZINC000001530617    0.4100
40     H40    -1.8788    4.5433   -1.3813 H        1 ZINC000001530617    0.1200
41     H41    -1.9022    6.8204   -2.3181 H        1 ZINC000001530617    0.1300
42     H42    -2.9877    7.2485   -4.4865 H        1 ZINC000001530617    0.1300
43     H43    -4.0491    5.3994   -5.7184 H        1 ZINC000001530617    0.1300
44     H44    -4.0216    3.1215   -4.7837 H        1 ZINC000001530617    0.1200
45     H45    -3.6284    1.2818   -4.8537 H        1 ZINC000001530617    0.1400
46     H46    -2.2605   -0.2031   -6.3049 H        1 ZINC000001530617    0.1400
47     H47     0.0043   -0.8695   -5.5260 H        1 ZINC000001530617    0.1400
48     H48     0.8212   -0.0446   -3.3539 H        1 ZINC000001530617    0.1700
49     H49    -1.4671   -1.0370    1.1370 H        1 ZINC000001530617    0.1400
50     H50    -2.5572    0.4431    3.5726 H        1 ZINC000001530617    0.0800
51     H51    -1.8930   -1.2081    3.5465 H        1 ZINC000001530617    0.1100
52     H52    -0.8295    0.1841    3.2319 H        1 ZINC000001530617    0.0800
53     H53    -4.2651   -0.0641    1.8730 H        1 ZINC000001530617    0.0800
54     H54    -3.8096   -0.8544    0.3445 H        1 ZINC000001530617    0.0800
55     H55    -3.7216   -1.7591    1.8749 H        1 ZINC000001530617    0.1100
@<TRIPOS>BOND
1     1     2     1
2     1     27    1
3     1     28    1
4     1     29    1
5     2     3     1
6     2     4     1
7     2     30    1
8     3     31    1
9     3     32    1
10    3     33    1
11    4     5     1
12    4     6     1
13    4     24    1
14    6     7     1
15    6     34    1
16    6     35    1
17    7     8     1
18    7     36    1
19    7     37    1
20    8     9     1
21    8     12    1
22    8     18    1
23    9     10    am
24    9     11    2
25    10    38    1
26    10    39    1
27    12    17    ar
28    12    13    ar
29    13    14    ar
30    13    40    1
31    14    15    ar
32    14    41    1
33    15    16    ar
34    15    42    1
35    16    17    ar
36    16    43    1
37    17    44    1
38    18    23    ar
39    18    19    ar
40    19    20    ar
41    19    45    1
42    20    21    ar
43    20    46    1
44    21    22    ar
45    21    47    1
46    22    23    ar
47    22    48    1
48    24    25    1
49    24    26    1
50    24    49    1
51    25    50    1
52    25    51    1
53    25    52    1
54    26    53    1
55    26    54    1
56    26    55    1
@<TRIPOS>SUBSTRUCTURE
1   ZINC000001530617 1     RESIDUE    1   A     ZIN   1
