@<TRIPOS>MOLECULE
ZINC000004212851
62    66    1     0     0
SMALL
USER_CHARGES
@<TRIPOS>ATOM
1      C1      0.2662    1.7546    1.8991 C.3      1 ZINC000004212851   -0.1900
2      C2      0.1394    0.2504    1.6500 C.3      1 ZINC000004212851    0.2400
3      C3     -1.3125   -0.1982    1.8277 C.3      1 ZINC000004212851   -0.1400
4      O4      0.6132   -0.0825    0.3284 O.3      1 ZINC000004212851   -0.3600
5      C5      2.0506   -0.1135    0.4436 C.3      1 ZINC000004212851    0.0600
6      H6      2.5160    0.8041    0.0835 H        1 ZINC000004212851    0.1000
7      C7      2.5640   -1.3711   -0.3095 C.3      1 ZINC000004212851   -0.1100
8      C8      2.5097   -2.4647    0.7625 C.3      1 ZINC000004212851   -0.0800
9      H9      1.4807   -2.7846    0.9264 H        1 ZINC000004212851    0.0800
10     C10     3.4041   -3.6677    0.5219 C.3      1 ZINC000004212851   -0.0800
11     H11     4.4400   -3.3425    0.4254 H        1 ZINC000004212851    0.1000
12     C12     2.9690   -4.3907   -0.7542 C.3      1 ZINC000004212851   -0.1100
13     C13     3.8960   -5.5824   -1.0142 C.3      1 ZINC000004212851   -0.0900
14     C14     3.8933   -6.4605    0.2231 C.2      1 ZINC000004212851   -0.0200
15     C15     3.6474   -7.7565    0.0909 C.2      1 ZINC000004212851   -0.2300
16     C16     3.6159   -8.6359    1.2698 C.2      1 ZINC000004212851    0.4100
17     O17     3.4285   -9.8321    1.1490 O.2      1 ZINC000004212851   -0.4600
18     C18     3.8158   -8.0354    2.5996 C.2      1 ZINC000004212851   -0.2200
19     C19     4.0665   -6.7401    2.7071 C.2      1 ZINC000004212851   -0.0600
20     C20     4.1739   -5.8118    1.5463 C.3      1 ZINC000004212851   -0.0100
21     C21     5.6051   -5.2722    1.5086 C.3      1 ZINC000004212851   -0.1300
22     C22     3.2633   -4.5965    1.7383 C.3      1 ZINC000004212851   -0.0500
23     H23     2.2275   -4.9306    1.7991 H        1 ZINC000004212851    0.0900
24     C24     3.6379   -3.8845    3.0347 C.3      1 ZINC000004212851    0.1100
25     H25     3.4372   -4.5481    3.8758 H        1 ZINC000004212851    0.0600
26     O26     5.0322   -3.5727    3.0094 O.3      1 ZINC000004212851   -0.5500
27     C27     2.8382   -2.5851    3.2191 C.3      1 ZINC000004212851   -0.1300
28     C28     3.0485   -1.7115    2.0079 C.3      1 ZINC000004212851   -0.0400
29     C29     4.5457   -1.4955    1.7786 C.3      1 ZINC000004212851   -0.1700
30     C30     2.3167   -0.3611    1.9580 C.3      1 ZINC000004212851    0.0500
31     C31     3.1529    0.7506    2.5376 C.2      1 ZINC000004212851    0.3600
32     O32     3.8829    1.3932    1.8217 O.2      1 ZINC000004212851   -0.4100
33     C33     3.0783    1.0603    4.0105 C.3      1 ZINC000004212851    0.0300
34     O34     3.8646    2.2193    4.2940 O.3      1 ZINC000004212851   -0.5500
35     O35     1.0058   -0.4827    2.5425 O.3      1 ZINC000004212851   -0.3400
36     H36     1.3102    2.0524    1.8009 H        1 ZINC000004212851    0.0600
37     H37    -0.3361    2.2958    1.1695 H        1 ZINC000004212851    0.0800
38     H38    -0.0849    1.9872    2.9045 H        1 ZINC000004212851    0.0800
39     H39    -1.9484    0.3431    1.1272 H        1 ZINC000004212851    0.0800
40     H40    -1.3883   -1.2684    1.6349 H        1 ZINC000004212851    0.0700
41     H41    -1.6352    0.0110    2.8477 H        1 ZINC000004212851    0.0800
42     H42     1.9058   -1.6161   -1.1432 H        1 ZINC000004212851    0.0900
43     H43     3.5866   -1.2218   -0.6559 H        1 ZINC000004212851    0.0900
44     H44     1.9451   -4.7461   -0.6385 H        1 ZINC000004212851    0.0700
45     H45     3.0197   -3.7012   -1.5969 H        1 ZINC000004212851    0.0800
46     H46     3.5329   -6.1513   -1.8701 H        1 ZINC000004212851    0.0800
47     H47     4.9073   -5.2261   -1.2104 H        1 ZINC000004212851    0.0900
48     H48     3.4685   -8.1702   -0.8906 H        1 ZINC000004212851    0.1400
49     H49     3.7582   -8.6507    3.4853 H        1 ZINC000004212851    0.1400
50     H50     4.2013   -6.3307    3.6974 H        1 ZINC000004212851    0.1300
51     H51     6.2547   -5.9990    1.0206 H        1 ZINC000004212851    0.0400
52     H52     5.6256   -4.3353    0.9520 H        1 ZINC000004212851    0.0800
53     H53     5.9547   -5.0981    2.5262 H        1 ZINC000004212851    0.1000
54     H54     5.3479   -3.1173    3.8019 H        1 ZINC000004212851    0.3700
55     H55     1.7737   -2.8104    3.2836 H        1 ZINC000004212851    0.0800
56     H56     3.1657   -2.0730    4.1239 H        1 ZINC000004212851    0.0700
57     H57     5.0130   -2.4436    1.5127 H        1 ZINC000004212851    0.1200
58     H58     4.6897   -0.7798    0.9692 H        1 ZINC000004212851    0.0500
59     H59     5.0009   -1.1092    2.6905 H        1 ZINC000004212851    0.0500
60     H60     2.0416    1.2473    4.2904 H        1 ZINC000004212851    0.0900
61     H61     3.4612    0.2133    4.5798 H        1 ZINC000004212851    0.0800
62     H62     3.8628    2.4776    5.2259 H        1 ZINC000004212851    0.3900
@<TRIPOS>BOND
1     1     2     1
2     1     36    1
3     1     37    1
4     1     38    1
5     2     35    1
6     2     3     1
7     2     4     1
8     3     39    1
9     3     40    1
10    3     41    1
11    4     5     1
12    5     6     1
13    5     30    1
14    5     7     1
15    7     8     1
16    7     42    1
17    7     43    1
18    8     9     1
19    8     28    1
20    8     10    1
21    10    11    1
22    10    22    1
23    10    12    1
24    12    13    1
25    12    44    1
26    12    45    1
27    13    14    1
28    13    46    1
29    13    47    1
30    14    20    1
31    14    15    2
32    15    16    1
33    15    48    1
34    16    17    2
35    16    18    1
36    18    19    2
37    18    49    1
38    19    20    1
39    19    50    1
40    20    21    1
41    20    22    1
42    21    51    1
43    21    52    1
44    21    53    1
45    22    23    1
46    22    24    1
47    24    25    1
48    24    26    1
49    24    27    1
50    26    54    1
51    27    28    1
52    27    55    1
53    27    56    1
54    28    29    1
55    28    30    1
56    29    57    1
57    29    58    1
58    29    59    1
59    30    31    1
60    30    35    1
61    31    32    2
62    31    33    1
63    33    34    1
64    33    60    1
65    33    61    1
66    34    62    1
@<TRIPOS>SUBSTRUCTURE
1   ZINC000004212851 1     RESIDUE    1   A     ZIN   1
