@<TRIPOS>MOLECULE
ZINC000000968305
40    41    1     0     0
SMALL
USER_CHARGES
@<TRIPOS>ATOM
1      C1      0.0180    1.4225   -0.2022 C.3      1 ZINC000000968305   -0.1800
2      C2     -0.0512   -0.0928   -0.0024 C.3      1 ZINC000000968305    0.0300
3      H3      0.2964   -0.5946   -0.9054 H        1 ZINC000000968305    0.1400
4      C4      0.8371   -0.4927    1.1774 C.3      1 ZINC000000968305   -0.1000
5      C5      2.2692   -0.1378    0.8708 C.ar     1 ZINC000000968305   -0.1000
6      C6      3.0483   -0.9969    0.1186 C.ar     1 ZINC000000968305   -0.1100
7      C7      4.3620   -0.6714   -0.1627 C.ar     1 ZINC000000968305   -0.1100
8      C8      4.8965    0.5134    0.3079 C.ar     1 ZINC000000968305   -0.1100
9      C9      4.1171    1.3729    1.0594 C.ar     1 ZINC000000968305   -0.1100
10     C10     2.8022    1.0494    1.3370 C.ar     1 ZINC000000968305   -0.1100
11     N11    -1.4390   -0.4874    0.2738 N.4      1 ZINC000000968305   -0.3800
12     H12    -1.7631   -0.0176    1.1058 H        1 ZINC000000968305    0.4200
13     C13    -2.2902   -0.1125   -0.8632 C.3      1 ZINC000000968305   -0.0600
14     C14    -1.5039   -1.9410    0.4756 C.3      1 ZINC000000968305    0.0400
15     C15    -2.9000   -2.3290    0.8895 C.ar     1 ZINC000000968305   -0.1600
16     C16    -3.2417   -2.3552    2.2287 C.ar     1 ZINC000000968305   -0.0900
17     C17    -4.5224   -2.7110    2.6085 C.ar     1 ZINC000000968305   -0.1100
18     C18    -5.4615   -3.0402    1.6489 C.ar     1 ZINC000000968305   -0.0800
19     C19    -5.1200   -3.0131    0.3097 C.ar     1 ZINC000000968305   -0.1100
20     C20    -3.8406   -2.6531   -0.0702 C.ar     1 ZINC000000968305   -0.1000
21     H21     1.0477    1.7153   -0.4071 H        1 ZINC000000968305    0.1100
22     H22    -0.6149    1.7074   -1.0427 H        1 ZINC000000968305    0.0800
23     H23    -0.3297    1.9244    0.7008 H        1 ZINC000000968305    0.0800
24     H24     0.5143    0.0398    2.0721 H        1 ZINC000000968305    0.1000
25     H25     0.7568   -1.5667    1.3450 H        1 ZINC000000968305    0.1000
26     H26     2.6308   -1.9226   -0.2491 H        1 ZINC000000968305    0.1200
27     H27     4.9710   -1.3429   -0.7497 H        1 ZINC000000968305    0.1300
28     H28     5.9231    0.7674    0.0888 H        1 ZINC000000968305    0.1300
29     H29     4.5348    2.2984    1.4273 H        1 ZINC000000968305    0.1300
30     H30     2.1932    1.7210    1.9241 H        1 ZINC000000968305    0.1200
31     H31    -1.9402   -0.6200   -1.7621 H        1 ZINC000000968305    0.1200
32     H32    -3.3200   -0.4053   -0.6583 H        1 ZINC000000968305    0.1200
33     H33    -2.2421    0.9661   -1.0130 H        1 ZINC000000968305    0.1300
34     H34    -1.2462   -2.4487   -0.4539 H        1 ZINC000000968305    0.1400
35     H35    -0.7998   -2.2314    1.2554 H        1 ZINC000000968305    0.1400
36     H36    -2.5080   -2.0980    2.9784 H        1 ZINC000000968305    0.1300
37     H37    -4.7891   -2.7322    3.6548 H        1 ZINC000000968305    0.1400
38     H38    -6.4618   -3.3189    1.9456 H        1 ZINC000000968305    0.1400
39     H39    -5.8536   -3.2705   -0.4399 H        1 ZINC000000968305    0.1400
40     H40    -3.5738   -2.6319   -1.1166 H        1 ZINC000000968305    0.1300
@<TRIPOS>BOND
1     1     2     1
2     1     21    1
3     1     22    1
4     1     23    1
5     2     3     1
6     2     4     1
7     2     11    1
8     4     5     1
9     4     24    1
10    4     25    1
11    5     10    ar
12    5     6     ar
13    6     7     ar
14    6     26    1
15    7     8     ar
16    7     27    1
17    8     9     ar
18    8     28    1
19    9     10    ar
20    9     29    1
21    10    30    1
22    11    12    1
23    11    13    1
24    11    14    1
25    13    31    1
26    13    32    1
27    13    33    1
28    14    15    1
29    14    34    1
30    14    35    1
31    15    20    ar
32    15    16    ar
33    16    17    ar
34    16    36    1
35    17    18    ar
36    17    37    1
37    18    19    ar
38    18    38    1
39    19    20    ar
40    19    39    1
41    20    40    1
@<TRIPOS>SUBSTRUCTURE
1   ZINC000000968305 1     RESIDUE    1   A     ZIN   1
