@<TRIPOS>MOLECULE
ZINC000003810860
51    54    1     0     0
SMALL
USER_CHARGES
@<TRIPOS>ATOM
1      O1      0.0021   -0.0041    0.0020 O.2      1 ZINC000003810860   -0.4800
2      C2     -0.0144    1.2087    0.0087 C.2      1 ZINC000003810860    0.5300
3      C3     -1.1207    2.2212    0.0314 C.3      1 ZINC000003810860   -0.1300
4      H4     -1.7065    2.2164    0.9506 H        1 ZINC000003810860    0.1300
5      C5     -1.9846    2.2262   -1.2313 C.3      1 ZINC000003810860   -0.0900
6      C6     -3.0713    1.1560   -1.1099 C.3      1 ZINC000003810860   -0.1500
7      C7     -3.9353    1.1609   -2.3726 C.3      1 ZINC000003810860    0.1500
8      H8     -3.2989    1.0367   -3.2488 H        1 ZINC000003810860    0.1100
9      O9     -4.6363    2.4027   -2.4652 O.3      1 ZINC000003810860   -0.5500
10     C10    -4.9269    0.0280   -2.3073 C.ar     1 ZINC000003810860   -0.1300
11     C11    -6.1304    0.2006   -1.6494 C.ar     1 ZINC000003810860   -0.0800
12     C12    -7.0405   -0.8376   -1.5888 C.ar     1 ZINC000003810860   -0.1500
13     C13    -6.7467   -2.0509   -2.1877 C.ar     1 ZINC000003810860    0.1000
14     F14    -7.6358   -3.0664   -2.1295 F        1 ZINC000003810860   -0.1400
15     C15    -5.5411   -2.2225   -2.8468 C.ar     1 ZINC000003810860   -0.1500
16     C16    -4.6347   -1.1813   -2.9102 C.ar     1 ZINC000003810860   -0.0800
17     C17     0.0041    3.2489    0.0198 C.3      1 ZINC000003810860    0.1800
18     H18     0.0281    3.8561   -0.8852 H        1 ZINC000003810860    0.1200
19     C19     0.0751    4.0754    1.2779 C.ar     1 ZINC000003810860   -0.1200
20     C20     0.6793    3.5593    2.4095 C.ar     1 ZINC000003810860   -0.0800
21     C21     0.7457    4.3149    3.5640 C.ar     1 ZINC000003810860   -0.1400
22     C22     0.2059    5.5927    3.5874 C.ar     1 ZINC000003810860    0.1200
23     O23     0.2703    6.3381    4.7219 O.3      1 ZINC000003810860   -0.5000
24     C24    -0.3994    6.1083    2.4506 C.ar     1 ZINC000003810860   -0.1400
25     C25    -0.4589    5.3506    1.2970 C.ar     1 ZINC000003810860   -0.0800
26     N26     0.9480    2.1388    0.0045 N.am     1 ZINC000003810860   -0.5600
27     C27     2.3465    2.0704   -0.0134 C.ar     1 ZINC000003810860    0.1600
28     C28     3.0997    3.2369   -0.0137 C.ar     1 ZINC000003810860   -0.1200
29     C29     4.4789    3.1673   -0.0314 C.ar     1 ZINC000003810860   -0.1200
30     C30     5.1107    1.9352   -0.0493 C.ar     1 ZINC000003810860    0.0700
31     F31     6.4600    1.8692   -0.0666 F        1 ZINC000003810860   -0.1400
32     C32     4.3615    0.7707   -0.0491 C.ar     1 ZINC000003810860   -0.1200
33     C33     2.9821    0.8359   -0.0251 C.ar     1 ZINC000003810860   -0.1200
34     H34    -2.4500    3.2047   -1.3493 H        1 ZINC000003810860    0.0900
35     H35    -1.3606    2.0135   -2.0993 H        1 ZINC000003810860    0.0700
36     H36    -2.6060    0.1774   -0.9919 H        1 ZINC000003810860    0.0800
37     H37    -3.6953    1.3686   -0.2419 H        1 ZINC000003810860    0.0700
38     H38    -5.2231    2.5799   -1.7173 H        1 ZINC000003810860    0.3700
39     H39    -6.3594    1.1471   -1.1823 H        1 ZINC000003810860    0.1300
40     H40    -7.9804   -0.7028   -1.0742 H        1 ZINC000003810860    0.1400
41     H41    -5.3108   -3.1685   -3.3140 H        1 ZINC000003810860    0.1400
42     H42    -3.6944   -1.3147   -3.4245 H        1 ZINC000003810860    0.1300
43     H43     1.0994    2.5645    2.3908 H        1 ZINC000003810860    0.1200
44     H44     1.2171    3.9111    4.4479 H        1 ZINC000003810860    0.1300
45     H45     1.0642    6.8862    4.7878 H        1 ZINC000003810860    0.3900
46     H46    -0.8206    7.1027    2.4664 H        1 ZINC000003810860    0.1300
47     H47    -0.9297    5.7517    0.4117 H        1 ZINC000003810860    0.1300
48     H48     2.6073    4.1980   -0.0005 H        1 ZINC000003810860    0.1400
49     H49     5.0651    4.0744   -0.0317 H        1 ZINC000003810860    0.1400
50     H50     4.8561   -0.1893   -0.0634 H        1 ZINC000003810860    0.1400
51     H51     2.3981   -0.0725   -0.0250 H        1 ZINC000003810860    0.1400
@<TRIPOS>BOND
1     1     2     2
2     2     26    am
3     2     3     1
4     3     4     1
5     3     5     1
6     3     17    1
7     5     6     1
8     5     34    1
9     5     35    1
10    6     7     1
11    6     36    1
12    6     37    1
13    7     8     1
14    7     9     1
15    7     10    1
16    9     38    1
17    10    16    ar
18    10    11    ar
19    11    12    ar
20    11    39    1
21    12    13    ar
22    12    40    1
23    13    14    1
24    13    15    ar
25    15    16    ar
26    15    41    1
27    16    42    1
28    17    18    1
29    17    19    1
30    17    26    1
31    19    25    ar
32    19    20    ar
33    20    21    ar
34    20    43    1
35    21    22    ar
36    21    44    1
37    22    23    1
38    22    24    ar
39    23    45    1
40    24    25    ar
41    24    46    1
42    25    47    1
43    26    27    1
44    27    33    ar
45    27    28    ar
46    28    29    ar
47    28    48    1
48    29    30    ar
49    29    49    1
50    30    31    1
51    30    32    ar
52    32    33    ar
53    32    50    1
54    33    51    1
@<TRIPOS>SUBSTRUCTURE
1   ZINC000003810860 1     RESIDUE    1   A     ZIN   1
