@<TRIPOS>MOLECULE
ZINC000100017856
44   47    0    0    0
SMALL
USER_CHARGES
NO_NAME
@<TRIPOS>ATOM
1 O1        0.0021    -0.0041     0.0020 O.2    1 <0>      -0.4400
2 C2       -0.0144     1.2101     0.0087 C.2    1 <0>       0.3900
3 C3       -1.2994     1.9426     0.0311 C.ar   1 <0>      -0.1300
4 C4       -2.5003     1.2962    -0.2307 C.ar   1 <0>      -0.0800
5 C5       -3.6870     2.0136    -0.2011 C.ar   1 <0>      -0.1200
6 C6       -3.6813     3.3645     0.0861 C.ar   1 <0>      -0.1100
7 C7       -2.4888     4.0234     0.3492 C.ar   1 <0>      -0.0900
8 C8       -1.2939     3.3193     0.3236 C.ar   1 <0>      -0.0900
9 C9       -0.0028     3.9908     0.5998 C.2    1 <0>       0.4300
10 O10       0.0174     5.1036     1.0895 O.2    1 <0>      -0.5100
11 C11       1.2521     3.3008     0.2773 C.2    1 <0>      -0.4300
12 C12       2.5467     4.0719     0.2595 C.3    1 <0>       0.0200
13 H13       3.3660     3.4005     0.0021 H      1 <0>       0.0700
14 C14       2.4592     5.1915    -0.7796 C.3    1 <0>      -0.1100
15 C15       3.7737     5.9743    -0.7977 C.3    1 <0>      -0.1100
16 C16       4.0257     6.5799     0.5846 C.3    1 <0>      -0.0500
17 H17       3.2064     7.2513     0.8419 H      1 <0>       0.0800
18 C18       5.3203     7.3510     0.5667 C.ar   1 <0>      -0.0600
19 C19       6.5040     6.7069     0.2581 C.ar   1 <0>      -0.1000
20 C20       7.6917     7.4135     0.2416 C.ar   1 <0>      -0.1100
21 C21       7.6959     8.7658     0.5340 C.ar   1 <0>      -0.0500
22 Cl22      9.1872     9.6542     0.5129 Cl     1 <0>      -0.0800
23 C23       6.5110     9.4099     0.8428 C.ar   1 <0>      -0.1100
24 C24       5.3231     8.7034     0.8534 C.ar   1 <0>      -0.1100
25 C25       4.1132     5.4603     1.6236 C.3    1 <0>      -0.1100
26 C26       2.7987     4.6775     1.6418 C.3    1 <0>      -0.1200
27 C27       1.2546     1.9799     0.0007 C.2    1 <0>       0.2500
28 O28       2.4183     1.3550    -0.2939 O.3    1 <0>      -0.6400
29 H29      -2.5102     0.2402    -0.4566 H      1 <0>       0.1300
30 H30      -4.6218     1.5124    -0.4044 H      1 <0>       0.1300
31 H31      -4.6119     3.9122     0.1057 H      1 <0>       0.1300
32 H32      -2.4910     5.0800     0.5726 H      1 <0>       0.1300
33 H33       2.2797     4.7601    -1.7643 H      1 <0>       0.0500
34 H34       1.6400     5.8629    -0.5222 H      1 <0>       0.0600
35 H35       4.5929     5.3030    -1.0551 H      1 <0>       0.0600
36 H36       3.7113     6.7720    -1.5380 H      1 <0>       0.0500
37 H37       6.5006     5.6512     0.0303 H      1 <0>       0.1300
38 H38       8.6164     6.9101     0.0009 H      1 <0>       0.1300
39 H39       6.5137    10.4654     1.0714 H      1 <0>       0.1300
40 H40       4.3980     9.2061     1.0941 H      1 <0>       0.1300
41 H41       4.9324     4.7890     1.3663 H      1 <0>       0.0600
42 H42       4.2927     5.8918     2.6084 H      1 <0>       0.0500
43 H43       1.9795     5.3488     1.8991 H      1 <0>       0.0800
44 H44       2.8611     3.8798     2.3820 H      1 <0>       0.0500
@<TRIPOS>BOND
1    1    2 2
2    2   27 1
3    2    3 1
4    3    8 ar
5    3    4 ar
6    4    5 ar
7    4   29 1
8    5    6 ar
9    5   30 1
10    6    7 ar
11    6   31 1
12    7    8 ar
13    7   32 1
14    8    9 1
15    9   10 2
16    9   11 1
17   11   12 1
18   11   27 2
19   12   13 1
20   12   26 1
21   12   14 1
22   14   15 1
23   14   33 1
24   14   34 1
25   15   16 1
26   15   35 1
27   15   36 1
28   16   17 1
29   16   18 1
30   16   25 1
31   18   24 ar
32   18   19 ar
33   19   20 ar
34   19   37 1
35   20   21 ar
36   20   38 1
37   21   22 1
38   21   23 ar
39   23   24 ar
40   23   39 1
41   24   40 1
42   25   26 1
43   25   41 1
44   25   42 1
45   26   43 1
46   26   44 1
47   27   28 1
