@<TRIPOS>MOLECULE
ZINC000000025958
43    46    1     0     0
SMALL
USER_CHARGES
@<TRIPOS>ATOM
1      C1     -0.0178    1.4648    0.0101 C.3      1 ZINC000000025958   -0.0500
2      N2      0.0021   -0.0041    0.0020 N.4      1 ZINC000000025958   -0.5100
3      H3      0.4901   -0.3383    0.8195 H        1 ZINC000000025958    0.4300
4      H4     -0.9445   -0.3533    0.0092 H        1 ZINC000000025958    0.4300
5      C5      0.6897   -0.4778   -1.2066 C.3      1 ZINC000000025958    0.0400
6      C6      0.7101   -1.9847   -1.2149 C.ar     1 ZINC000000025958   -0.1600
7      C7      1.7614   -2.6625   -0.6236 C.ar     1 ZINC000000025958   -0.0900
8      C8      1.7862   -4.0418   -0.6277 C.ar     1 ZINC000000025958   -0.1000
9      C9      0.7477   -4.7536   -1.2301 C.ar     1 ZINC000000025958    0.0100
10     C10     0.7675   -6.2319   -1.2378 C.2      1 ZINC000000025958    0.1000
11     C11     0.4923   -7.0139   -2.3095 C.2      1 ZINC000000025958   -0.1200
12     C12     0.1824   -6.5959   -3.7030 C.3      1 ZINC000000025958   -0.0800
13     C13     0.6554   -7.6013   -4.7236 C.3      1 ZINC000000025958    0.1100
14     N14    -0.1964   -8.7595   -4.8325 N.am     1 ZINC000000025958   -0.7100
15     C15    -0.3139   -9.6694   -3.8464 C.2      1 ZINC000000025958    0.5600
16     O16    -1.0183  -10.6362   -4.0660 O.2      1 ZINC000000025958   -0.5300
17     C17     0.3301   -9.5989   -2.5356 C.ar     1 ZINC000000025958   -0.0500
18     C18     0.5716   -8.3690   -1.8870 C.ar     1 ZINC000000025958   -0.0900
19     C19     1.0329   -8.3487   -0.5590 C.ar     1 ZINC000000025958    0.1300
20     C20     1.3652   -9.5430    0.0684 C.ar     1 ZINC000000025958   -0.1400
21     C21     1.2244  -10.7416   -0.6075 C.ar     1 ZINC000000025958    0.1300
22     F22     1.5970  -11.8926   -0.0063 F        1 ZINC000000025958   -0.1200
23     C23     0.7066  -10.7793   -1.8900 C.ar     1 ZINC000000025958   -0.1100
24     N24     1.0740   -7.0294   -0.1594 N.pl3    1 ZINC000000025958   -0.5800
25     C25    -0.3099   -4.0637   -1.8248 C.ar     1 ZINC000000025958   -0.0900
26     C26    -0.3254   -2.6842   -1.8088 C.ar     1 ZINC000000025958   -0.0900
27     H27     1.0047    1.8421    0.0024 H        1 ZINC000000025958    0.1200
28     H28    -0.5450    1.8259   -0.8730 H        1 ZINC000000025958    0.1200
29     H29    -0.5280    1.8163    0.9069 H        1 ZINC000000025958    0.1300
30     H30     0.1625   -0.1167   -2.0897 H        1 ZINC000000025958    0.1400
31     H31     1.7123   -0.1005   -1.2143 H        1 ZINC000000025958    0.1400
32     H32     2.5646   -2.1105   -0.1581 H        1 ZINC000000025958    0.1400
33     H33     2.6076   -4.5697   -0.1661 H        1 ZINC000000025958    0.1400
34     H34    -0.8959   -6.4722   -3.8029 H        1 ZINC000000025958    0.0800
35     H35     0.6654   -5.6389   -3.9001 H        1 ZINC000000025958    0.0900
36     H36     0.7057   -7.1128   -5.6967 H        1 ZINC000000025958    0.1000
37     H37     1.6579   -7.9304   -4.4499 H        1 ZINC000000025958    0.0700
38     H38    -0.7053   -8.8883   -5.6482 H        1 ZINC000000025958    0.4100
39     H39     1.7338   -9.5355    1.0835 H        1 ZINC000000025958    0.1400
40     H40     0.5932  -11.7272   -2.3950 H        1 ZINC000000025958    0.1500
41     H41     1.2793   -6.7158    0.7353 H        1 ZINC000000025958    0.4200
42     H42    -1.1164   -4.6085   -2.2928 H        1 ZINC000000025958    0.1400
43     H43    -1.1431   -2.1492   -2.2686 H        1 ZINC000000025958    0.1400
@<TRIPOS>BOND
1     1     2     1
2     1     27    1
3     1     28    1
4     1     29    1
5     2     3     1
6     2     4     1
7     2     5     1
8     5     6     1
9     5     30    1
10    5     31    1
11    6     26    ar
12    6     7     ar
13    7     8     ar
14    7     32    1
15    8     9     ar
16    8     33    1
17    9     10    1
18    9     25    ar
19    10    24    1
20    10    11    2
21    11    18    1
22    11    12    1
23    12    13    1
24    12    34    1
25    12    35    1
26    13    14    1
27    13    36    1
28    13    37    1
29    14    15    am
30    14    38    1
31    15    16    2
32    15    17    1
33    17    23    ar
34    17    18    ar
35    18    19    ar
36    19    20    ar
37    19    24    1
38    20    21    ar
39    20    39    1
40    21    22    1
41    21    23    ar
42    23    40    1
43    24    41    1
44    25    26    ar
45    25    42    1
46    26    43    1
@<TRIPOS>SUBSTRUCTURE
1   ZINC000000025958 1     RESIDUE    1   A     ZIN   1
