@<TRIPOS>MOLECULE
ZINC000003830713
56   56    0    0    0
SMALL
USER_CHARGES
NO_NAME
@<TRIPOS>ATOM
1 C1       -0.4601     1.5784    -1.0433 C.3    1 <0>      -0.1500
2 C2       -0.4254     0.0488    -1.0561 C.3    1 <0>      -0.1300
3 C3       -1.8283    -0.4955    -0.7797 C.3    1 <0>      -0.1200
4 C4       -1.7936    -2.0250    -0.7924 C.3    1 <0>      -0.1200
5 C5       -3.1965    -2.5694    -0.5160 C.3    1 <0>      -0.1400
6 C6       -3.1618    -4.0989    -0.5288 C.3    1 <0>       0.1300
7 H7       -2.4116    -4.4512     0.1792 H      1 <0>       0.1100
8 O8       -2.8304    -4.5569    -1.8412 O.3    1 <0>      -0.5600
9 C9       -4.5142    -4.6354    -0.1361 C.2    1 <0>      -0.1800
10 C10      -5.1396    -5.4751    -0.9235 C.2    1 <0>      -0.1400
11 C11      -6.4920    -6.0116    -0.5308 C.3    1 <0>      -0.0500
12 H12      -6.8064    -5.5921     0.4249 H      1 <0>       0.1000
13 C13      -7.5397    -5.7052    -1.6310 C.3    1 <0>       0.1100
14 H14      -7.0985    -5.7990    -2.6233 H      1 <0>       0.0700
15 O15      -8.1029    -4.4046    -1.4485 O.3    1 <0>      -0.5500
16 C16      -8.6010    -6.8081    -1.3935 C.3    1 <0>      -0.2200
17 C17      -7.7922    -8.0368    -1.0170 C.2    1 <0>       0.3800
18 O18      -8.1414    -9.1869    -1.1340 O.2    1 <0>      -0.4300
19 C19      -6.4653    -7.5527    -0.4639 C.3    1 <0>      -0.1300
20 H20      -5.6461    -7.9359    -1.0723 H      1 <0>       0.1100
21 C21      -6.3019    -8.0169     0.9848 C.3    1 <0>      -0.0800
22 C22      -6.1825    -9.5187     1.0206 C.2    1 <0>      -0.1900
23 C23      -5.1783   -10.0812     1.6462 C.2    1 <0>      -0.1300
24 C24      -4.2374    -9.2401     2.4699 C.3    1 <0>      -0.1100
25 C25      -4.1446    -9.8154     3.8845 C.3    1 <0>      -0.0900
26 C26      -3.1893    -8.9615     4.7207 C.3    1 <0>      -0.1800
27 C27      -3.0980    -9.5282     6.1141 C.2    1 <0>       0.4900
28 O28      -3.7376   -10.5228     6.4109 O.co2  1 <0>      -0.7000
29 O29      -2.3844    -8.9920     6.9447 O.co2  1 <0>      -0.7100
30 H30       0.5393     1.9662    -1.2403 H      1 <0>       0.0500
31 H31      -1.1455     1.9327    -1.8133 H      1 <0>       0.0500
32 H32      -0.7990     1.9260    -0.0674 H      1 <0>       0.0500
33 H33      -0.0866    -0.2988    -2.0320 H      1 <0>       0.0600
34 H34       0.2600    -0.3055    -0.2862 H      1 <0>       0.0600
35 H35      -2.1672    -0.1479     0.1962 H      1 <0>       0.0600
36 H36      -2.5137    -0.1412    -1.5496 H      1 <0>       0.0600
37 H37      -1.4548    -2.3726    -1.7684 H      1 <0>       0.0700
38 H38      -1.1082    -2.3793    -0.0225 H      1 <0>       0.0600
39 H39      -3.5353    -2.2217     0.4599 H      1 <0>       0.0700
40 H40      -3.8819    -2.2151    -1.2860 H      1 <0>       0.0700
41 H41      -3.4564    -4.2800    -2.5242 H      1 <0>       0.3700
42 H42      -4.9679    -4.3275     0.7944 H      1 <0>       0.1200
43 H43      -4.6859    -5.7829    -1.8540 H      1 <0>       0.1200
44 H44      -8.7644    -4.1658    -2.1122 H      1 <0>       0.3800
45 H45      -9.2671    -6.5262    -0.5781 H      1 <0>       0.1100
46 H46      -9.1699    -6.9915    -2.3050 H      1 <0>       0.0900
47 H47      -5.4030    -7.5706     1.4101 H      1 <0>       0.0900
48 H48      -7.1709    -7.7076     1.5656 H      1 <0>       0.0700
49 H49      -6.9247   -10.1313     0.5305 H      1 <0>       0.1200
50 H50      -5.0248   -11.1476     1.5718 H      1 <0>       0.1100
51 H51      -3.2490    -9.2447     2.0102 H      1 <0>       0.0600
52 H52      -4.6112    -8.2173     2.5174 H      1 <0>       0.0700
53 H53      -5.1330    -9.8108     4.3442 H      1 <0>       0.0600
54 H54      -3.7708   -10.8382     3.8370 H      1 <0>       0.0600
55 H55      -2.2010    -8.9661     4.2611 H      1 <0>       0.0600
56 H56      -3.5632    -7.9388     4.7682 H      1 <0>       0.0500
@<TRIPOS>BOND
1    1    2 1
2    1   30 1
3    1   31 1
4    1   32 1
5    2    3 1
6    2   33 1
7    2   34 1
8    3    4 1
9    3   35 1
10    3   36 1
11    4    5 1
12    4   37 1
13    4   38 1
14    5    6 1
15    5   39 1
16    5   40 1
17    6    7 1
18    6    8 1
19    6    9 1
20    8   41 1
21    9   10 2
22    9   42 1
23   10   11 1
24   10   43 1
25   11   12 1
26   11   19 1
27   11   13 1
28   13   14 1
29   13   15 1
30   13   16 1
31   15   44 1
32   16   17 1
33   16   45 1
34   16   46 1
35   17   18 2
36   17   19 1
37   19   20 1
38   19   21 1
39   21   22 1
40   21   47 1
41   21   48 1
42   22   23 2
43   22   49 1
44   23   24 1
45   23   50 1
46   24   25 1
47   24   51 1
48   24   52 1
49   25   26 1
50   25   53 1
51   25   54 1
52   26   27 1
53   26   55 1
54   26   56 1
55   27   28 ar
56   27   29 ar
