@<TRIPOS>MOLECULE
ZINC000052509366
50    53    1     0     0
SMALL
USER_CHARGES
@<TRIPOS>ATOM
1      C1     -5.6283   -4.1348    1.5745 C.3      1 ZINC000052509366   -0.1400
2      C2     -4.1580   -4.2130    1.1586 C.3      1 ZINC000052509366   -0.1200
3      C3     -3.3046   -4.5928    2.3704 C.3      1 ZINC000052509366   -0.5900
4      S4     -1.5615   -4.6856    1.8772 S.o2     1 ZINC000052509366    2.5300
5      O5     -1.3475   -5.7884    1.0070 O.2      1 ZINC000052509366   -1.0200
6      O6     -1.0641   -3.3933    1.5580 O.2      1 ZINC000052509366   -1.0200
7      N7     -0.7605   -5.0999    3.2661 N.pl3    1 ZINC000052509366   -1.0900
8      C8      0.6303   -5.2609    3.2508 C.ar     1 ZINC000052509366    0.2500
9      C9      1.3380   -5.0675    2.0721 C.ar     1 ZINC000052509366   -0.2000
10     C10     2.7121   -5.2243    2.0491 C.ar     1 ZINC000052509366   -0.1000
11     C11     3.3921   -5.5753    3.1993 C.ar     1 ZINC000052509366    0.0400
12     F12     4.7342   -5.7272    3.1715 F        1 ZINC000052509366   -0.1500
13     C13     2.6893   -5.7730    4.3936 C.ar     1 ZINC000052509366   -0.1800
14     C14     3.4112   -6.1476    5.6255 C.2      1 ZINC000052509366    0.4900
15     O15     3.9071   -5.2850    6.3264 O.2      1 ZINC000052509366   -0.4500
16     C16     3.5309   -7.5609    6.0052 C.2      1 ZINC000052509366   -0.2400
17     C17     3.1176   -8.6414    5.2800 C.2      1 ZINC000052509366    0.1500
18     N18     3.3989   -9.7815    5.9561 N.pl3    1 ZINC000052509366   -0.5600
19     C19     4.0104   -9.4950    7.1566 C.ar     1 ZINC000052509366    0.2800
20     N20     4.4634  -10.2600    8.1419 N.ar     1 ZINC000052509366   -0.4900
21     C21     5.0226   -9.7491    9.2165 C.ar     1 ZINC000052509366    0.1500
22     C22     5.1675   -8.3694    9.3744 C.ar     1 ZINC000052509366   -0.1300
23     C23     5.8018   -7.8143   10.5957 C.ar     1 ZINC000052509366   -0.0200
24     C24     5.9373   -6.4358   10.7480 C.ar     1 ZINC000052509366   -0.1000
25     C25     6.5274   -5.9244   11.8858 C.ar     1 ZINC000052509366   -0.1000
26     C26     6.9844   -6.7784   12.8749 C.ar     1 ZINC000052509366   -0.0400
27     Cl27    7.7259   -6.1290   14.3039 Cl       1 ZINC000052509366   -0.0700
28     C28     6.8517   -8.1486   12.7284 C.ar     1 ZINC000052509366   -0.1100
29     C29     6.2586   -8.6695   11.5964 C.ar     1 ZINC000052509366   -0.1000
30     C30     4.7078   -7.5200    8.3675 C.ar     1 ZINC000052509366   -0.0100
31     C31     4.1271   -8.0963    7.2424 C.ar     1 ZINC000052509366   -0.1000
32     C32     1.3013   -5.6083    4.4156 C.ar     1 ZINC000052509366    0.0800
33     F33     0.6142   -5.7968    5.5635 F        1 ZINC000052509366   -0.1300
34     H34    -5.7461   -3.3805    2.3526 H        1 ZINC000052509366    0.0600
35     H35    -6.2362   -3.8642    0.7112 H        1 ZINC000052509366    0.0600
36     H36    -5.9500   -5.1038    1.9562 H        1 ZINC000052509366    0.0600
37     H37    -4.0402   -4.9673    0.3805 H        1 ZINC000052509366    0.0700
38     H38    -3.8363   -3.2440    0.7769 H        1 ZINC000052509366    0.0700
39     H39    -3.4224   -3.8386    3.1484 H        1 ZINC000052509366    0.1200
40     H40    -3.6264   -5.5618    2.7520 H        1 ZINC000052509366    0.1200
41     H41     0.8132   -4.7937    1.1688 H        1 ZINC000052509366    0.1200
42     H42     3.2555   -5.0721    1.1283 H        1 ZINC000052509366    0.1300
43     H43     2.6383   -8.5945    4.3134 H        1 ZINC000052509366    0.2000
44     H44     3.1976  -10.6757    5.6386 H        1 ZINC000052509366    0.4300
45     H45     5.3770  -10.4103    9.9934 H        1 ZINC000052509366    0.1600
46     H46     5.5814   -5.7688    9.9768 H        1 ZINC000052509366    0.1400
47     H47     6.6332   -4.8562   12.0046 H        1 ZINC000052509366    0.1400
48     H48     7.2097   -8.8108   13.5027 H        1 ZINC000052509366    0.1300
49     H49     6.1551   -9.7385   11.4832 H        1 ZINC000052509366    0.1400
50     H50     4.8038   -6.4480    8.4569 H        1 ZINC000052509366    0.1500
@<TRIPOS>BOND
1     1     2     1
2     1     34    1
3     1     35    1
4     1     36    1
5     2     3     1
6     2     37    1
7     2     38    1
8     3     4     1
9     3     39    1
10    3     40    1
11    4     5     2
12    4     6     2
13    4     7     1
14    7     8     1
15    8     32    ar
16    8     9     ar
17    9     10    ar
18    9     41    1
19    10    11    ar
20    10    42    1
21    11    12    1
22    11    13    ar
23    13    14    1
24    13    32    ar
25    14    15    2
26    14    16    1
27    16    31    1
28    16    17    2
29    17    18    1
30    17    43    1
31    18    19    1
32    18    44    1
33    19    31    ar
34    19    20    ar
35    20    21    ar
36    21    22    ar
37    21    45    1
38    22    23    1
39    22    30    ar
40    23    29    ar
41    23    24    ar
42    24    25    ar
43    24    46    1
44    25    26    ar
45    25    47    1
46    26    27    1
47    26    28    ar
48    28    29    ar
49    28    48    1
50    29    49    1
51    30    31    ar
52    30    50    1
53    32    33    1
@<TRIPOS>SUBSTRUCTURE
1   ZINC000052509366 1     RESIDUE    1   A     ZIN   1
