@<TRIPOS>MOLECULE
ZINC000000004319
48    49    1     0     0
SMALL
USER_CHARGES
@<TRIPOS>ATOM
1      C1     -0.0187    1.5258    0.0104 C.3      1 ZINC000000004319   -0.1800
2      C2      0.0021   -0.0041    0.0020 C.3      1 ZINC000000004319    0.0300
3      H3      0.5293   -0.3651    0.8851 H        1 ZINC000000004319    0.1400
4      C4      0.7182   -0.4975   -1.2568 C.3      1 ZINC000000004319   -0.1400
5      C5      0.8493   -2.0210   -1.2049 C.3      1 ZINC000000004319   -0.0900
6      C6      1.5546   -2.5070   -2.4448 C.ar     1 ZINC000000004319   -0.1000
7      C7      0.8244   -2.8341   -3.5721 C.ar     1 ZINC000000004319   -0.1200
8      C8      1.4715   -3.2799   -4.7094 C.ar     1 ZINC000000004319   -0.1200
9      C9      2.8487   -3.3982   -4.7196 C.ar     1 ZINC000000004319   -0.1100
10     C10     3.5790   -3.0702   -3.5927 C.ar     1 ZINC000000004319   -0.1200
11     C11     2.9323   -2.6203   -2.4567 C.ar     1 ZINC000000004319   -0.1100
12     N12    -1.3761   -0.5125    0.0124 N.4      1 ZINC000000004319   -0.5100
13     H13    -1.8879   -0.1129   -0.7598 H        1 ZINC000000004319    0.4300
14     H14    -1.3644   -1.5176   -0.0760 H        1 ZINC000000004319    0.4200
15     C15    -2.0260   -0.1396    1.2760 C.3      1 ZINC000000004319   -0.0500
16     C16    -3.4614   -0.6692    1.2868 C.3      1 ZINC000000004319    0.1600
17     H17    -3.4489   -1.7550    1.1913 H        1 ZINC000000004319    0.1100
18     O18    -4.1863   -0.1032    0.1931 O.3      1 ZINC000000004319   -0.5600
19     C19    -4.1282   -0.2867    2.5830 C.ar     1 ZINC000000004319   -0.3100
20     C20    -4.7305    0.9542    2.7084 C.ar     1 ZINC000000004319   -0.0400
21     C21    -5.3443    1.3165    3.8913 C.ar     1 ZINC000000004319   -0.2500
22     C22    -5.3616    0.4370    4.9632 C.ar     1 ZINC000000004319    0.3100
23     O23    -5.9645    0.7913    6.1256 O.3      1 ZINC000000004319   -0.6400
24     C24    -4.7535   -0.8199    4.8402 C.ar     1 ZINC000000004319   -0.2900
25     C25    -4.7654   -1.7641    5.9738 C.2      1 ZINC000000004319    0.5600
26     N26    -4.1796   -2.9717    5.8512 N.am     1 ZINC000000004319   -0.8700
27     O27    -5.3037   -1.4528    7.0187 O.2      1 ZINC000000004319   -0.5200
28     C28    -4.1408   -1.1754    3.6364 C.ar     1 ZINC000000004319   -0.0100
29     H29     1.0039    1.9031    0.0027 H        1 ZINC000000004319    0.1000
30     H30    -0.5459    1.8868   -0.8726 H        1 ZINC000000004319    0.0800
31     H31    -0.5289    1.8773    0.9072 H        1 ZINC000000004319    0.0900
32     H32     0.1430   -0.2121   -2.1375 H        1 ZINC000000004319    0.0900
33     H33     1.7103   -0.0491   -1.3098 H        1 ZINC000000004319    0.1100
34     H34     1.4245   -2.3064   -0.3242 H        1 ZINC000000004319    0.0900
35     H35    -0.1428   -2.4694   -1.1520 H        1 ZINC000000004319    0.0700
36     H36    -0.2516   -2.7418   -3.5641 H        1 ZINC000000004319    0.1200
37     H37     0.9009   -3.5362   -5.5899 H        1 ZINC000000004319    0.1300
38     H38     3.3542   -3.7471   -5.6080 H        1 ZINC000000004319    0.1300
39     H39     4.6550   -3.1628   -3.6005 H        1 ZINC000000004319    0.1300
40     H40     3.5028   -2.3640   -1.5763 H        1 ZINC000000004319    0.1200
41     H41    -1.4732   -0.5714    2.1102 H        1 ZINC000000004319    0.1400
42     H42    -2.0386    0.9461    1.3715 H        1 ZINC000000004319    0.1300
43     H43    -4.2382    0.8622    0.2132 H        1 ZINC000000004319    0.3800
44     H44    -4.7198    1.6427    1.8764 H        1 ZINC000000004319    0.0900
45     H45    -5.8112    2.2861    3.9817 H        1 ZINC000000004319    0.1100
46     H46    -3.7502   -3.2201    5.0177 H        1 ZINC000000004319    0.3900
47     H47    -4.1874   -3.5924    6.5966 H        1 ZINC000000004319    0.3900
48     H48    -3.6705   -2.1422    3.5339 H        1 ZINC000000004319    0.1000
@<TRIPOS>BOND
1     1     2     1
2     1     29    1
3     1     30    1
4     1     31    1
5     2     3     1
6     2     4     1
7     2     12    1
8     4     5     1
9     4     32    1
10    4     33    1
11    5     6     1
12    5     34    1
13    5     35    1
14    6     11    ar
15    6     7     ar
16    7     8     ar
17    7     36    1
18    8     9     ar
19    8     37    1
20    9     10    ar
21    9     38    1
22    10    11    ar
23    10    39    1
24    11    40    1
25    12    13    1
26    12    14    1
27    12    15    1
28    15    16    1
29    15    41    1
30    15    42    1
31    16    17    1
32    16    18    1
33    16    19    1
34    18    43    1
35    19    28    ar
36    19    20    ar
37    20    21    ar
38    20    44    1
39    21    22    ar
40    21    45    1
41    22    23    1
42    22    24    ar
43    24    25    1
44    24    28    ar
45    25    26    am
46    25    27    2
47    26    46    1
48    26    47    1
49    28    48    1
@<TRIPOS>SUBSTRUCTURE
1   ZINC000000004319 1     RESIDUE    1   A     ZIN   1
