@<TRIPOS>MOLECULE
ZINC000000601301
41    43    1     0     0
SMALL
USER_CHARGES
@<TRIPOS>ATOM
1      N1     -0.8590   -0.2265    0.9959 N.am     1 ZINC000000601301   -1.2400
2      S2     -0.0375    0.3764   -0.3094 S.o2     1 ZINC000000601301    2.6900
3      O3     -0.3258    1.7670   -0.3576 O.2      1 ZINC000000601301   -0.9400
4      O4      1.2833   -0.1410   -0.2262 O.2      1 ZINC000000601301   -0.9500
5      C5     -0.7593   -0.3316   -1.7524 C.ar     1 ZINC000000601301   -0.7100
6      C6     -0.0239   -1.1971   -2.5420 C.ar     1 ZINC000000601301    0.1200
7      C7     -0.5918   -1.7552   -3.6681 C.ar     1 ZINC000000601301   -0.7200
8      C8     -1.9032   -1.4629   -4.0172 C.ar     1 ZINC000000601301    0.3500
9      C9     -2.6342   -0.5812   -3.2223 C.ar     1 ZINC000000601301   -0.1600
10     C10    -2.0643   -0.0277   -2.0951 C.ar     1 ZINC000000601301    0.0000
11     C11    -2.8630    0.9217   -1.2396 C.3      1 ZINC000000601301    0.4800
12     F12    -4.1795    0.9777   -1.7093 F        1 ZINC000000601301   -0.1700
13     F13    -2.8592    0.4715    0.0850 F        1 ZINC000000601301   -0.1700
14     F14    -2.2915    2.1972   -1.3002 F        1 ZINC000000601301   -0.1300
15     N15    -2.5215   -2.0397   -5.1233 N.pl3    1 ZINC000000601301   -0.7300
16     C16    -1.7849   -2.5985   -6.2543 C.3      1 ZINC000000601301    0.3800
17     H17    -2.4694   -3.1470   -6.9014 H        1 ZINC000000601301    0.1400
18     C18    -1.1254   -1.4676   -7.0463 C.3      1 ZINC000000601301   -0.1200
19     C19    -2.1908   -0.6015   -7.6672 C.ar     1 ZINC000000601301   -0.0800
20     C20    -2.7504   -0.9569   -8.8802 C.ar     1 ZINC000000601301   -0.1100
21     C21    -3.7278   -0.1624   -9.4498 C.ar     1 ZINC000000601301   -0.1200
22     C22    -4.1458    0.9873   -8.8062 C.ar     1 ZINC000000601301   -0.1200
23     C23    -3.5869    1.3423   -7.5927 C.ar     1 ZINC000000601301   -0.1200
24     C24    -2.6126    0.5455   -7.0211 C.ar     1 ZINC000000601301   -0.1100
25     N25    -0.7488   -3.5158   -5.7384 N.am     1 ZINC000000601301   -1.1100
26     S26     0.3576   -2.8462   -4.6844 S.o2     1 ZINC000000601301    2.6900
27     O27     1.2244   -2.0321   -5.4621 O.2      1 ZINC000000601301   -0.9300
28     O28     0.8122   -3.8981   -3.8440 O.2      1 ZINC000000601301   -0.9400
29     H29    -1.3838    0.3673    1.5552 H        1 ZINC000000601301    0.4300
30     H30    -0.8186   -1.1742    1.1989 H        1 ZINC000000601301    0.4200
31     H31     0.9955   -1.4356   -2.2767 H        1 ZINC000000601301    0.1700
32     H32    -3.6516   -0.3343   -3.4877 H        1 ZINC000000601301    0.1600
33     H33    -3.4907   -2.0726   -5.1438 H        1 ZINC000000601301    0.4200
34     H34    -0.5118   -0.8649   -6.3766 H        1 ZINC000000601301    0.0900
35     H35    -0.4985   -1.8911   -7.8309 H        1 ZINC000000601301    0.1100
36     H36    -2.4238   -1.8551   -9.3831 H        1 ZINC000000601301    0.1200
37     H37    -4.1644   -0.4397  -10.3979 H        1 ZINC000000601301    0.1200
38     H38    -4.9089    1.6084   -9.2515 H        1 ZINC000000601301    0.1200
39     H39    -3.9133    2.2407   -7.0900 H        1 ZINC000000601301    0.1200
40     H40    -2.1760    0.8228   -6.0730 H        1 ZINC000000601301    0.1200
41     H41    -0.7139   -4.4502   -5.9962 H        1 ZINC000000601301    0.4300
@<TRIPOS>BOND
1     1     2     am
2     1     29    1
3     1     30    1
4     2     3     2
5     2     4     2
6     2     5     1
7     5     10    ar
8     5     6     ar
9     6     7     ar
10    6     31    1
11    7     26    1
12    7     8     ar
13    8     9     ar
14    8     15    1
15    9     10    ar
16    9     32    1
17    10    11    1
18    11    12    1
19    11    13    1
20    11    14    1
21    15    16    1
22    15    33    1
23    16    17    1
24    16    18    1
25    16    25    1
26    18    19    1
27    18    34    1
28    18    35    1
29    19    24    ar
30    19    20    ar
31    20    21    ar
32    20    36    1
33    21    22    ar
34    21    37    1
35    22    23    ar
36    22    38    1
37    23    24    ar
38    23    39    1
39    24    40    1
40    25    26    am
41    25    41    1
42    26    27    2
43    26    28    2
@<TRIPOS>SUBSTRUCTURE
1   ZINC000000601301 1     RESIDUE    1   A     ZIN   1
