@<TRIPOS>MOLECULE
ZINC000008214614
73    72    1     0     0
SMALL
USER_CHARGES
@<TRIPOS>ATOM
1      C1     -0.6920   -0.9123   -2.5513 C.3      1 ZINC000008214614   -0.1500
2      C2     -0.5632   -2.4249   -2.3606 C.3      1 ZINC000008214614   -0.1300
3      C3      0.1604   -2.7131   -1.0437 C.3      1 ZINC000008214614   -0.1200
4      C4      0.2892   -4.2257   -0.8530 C.3      1 ZINC000008214614   -0.1200
5      C5      1.0127   -4.5139    0.4639 C.3      1 ZINC000008214614   -0.1200
6      C6      1.1416   -6.0265    0.6546 C.3      1 ZINC000008214614   -0.1200
7      C7      1.8651   -6.3148    1.9715 C.3      1 ZINC000008214614   -0.1200
8      C8      1.9939   -7.8274    2.1622 C.3      1 ZINC000008214614   -0.1200
9      C9      2.7174   -8.1156    3.4791 C.3      1 ZINC000008214614   -0.1200
10     C10     2.8463   -9.6282    3.6698 C.3      1 ZINC000008214614   -0.1200
11     C11     3.5698   -9.9165    4.9867 C.3      1 ZINC000008214614   -0.1200
12     C12     3.6986  -11.4291    5.1774 C.3      1 ZINC000008214614   -0.1200
13     C13     4.4221  -11.7173    6.4943 C.3      1 ZINC000008214614   -0.1200
14     C14     4.5510  -13.2299    6.6850 C.3      1 ZINC000008214614   -0.1200
15     C15     5.2745  -13.5181    8.0019 C.3      1 ZINC000008214614   -0.1200
16     C16     5.4033  -15.0307    8.1926 C.3      1 ZINC000008214614    0.1300
17     O17     6.0791  -15.2999    9.4226 O.3      1 ZINC000008214614   -0.7700
18     P18     6.3886  -16.7911    9.9449 P.3      1 ZINC000008214614    2.2100
19     O19     7.1681  -17.5657    8.8590 O.co2    1 ZINC000008214614   -1.0900
20     O20     5.0587  -17.5190   10.2423 O.co2    1 ZINC000008214614   -1.0900
21     O21     7.2717  -16.7164   11.2890 O.3      1 ZINC000008214614   -0.7600
22     C22     7.7979  -17.8746   11.9400 C.3      1 ZINC000008214614    0.1000
23     C23     8.5842  -17.4489   13.1815 C.3      1 ZINC000008214614   -0.0100
24     N24     7.6638  -16.8707   14.1696 N.4      1 ZINC000008214614   -0.2700
25     C25     6.5812  -17.8242   14.4471 C.3      1 ZINC000008214614   -0.0600
26     C26     8.3948  -16.5850   15.4114 C.3      1 ZINC000008214614   -0.0400
27     C27     7.0948  -15.6248   13.6386 C.3      1 ZINC000008214614   -0.0400
28     H28     0.3010   -0.4634   -2.5765 H        1 ZINC000008214614    0.0500
29     H29    -1.2074   -0.7069   -3.4895 H        1 ZINC000008214614    0.0500
30     H30    -1.2613   -0.4889   -1.7238 H        1 ZINC000008214614    0.0500
31     H31    -1.5561   -2.8738   -2.3355 H        1 ZINC000008214614    0.0600
32     H32     0.0061   -2.8482   -3.1882 H        1 ZINC000008214614    0.0600
33     H33     1.1533   -2.2642   -1.0688 H        1 ZINC000008214614    0.0600
34     H34    -0.4089   -2.2898   -0.2162 H        1 ZINC000008214614    0.0600
35     H35    -0.7037   -4.6746   -0.8279 H        1 ZINC000008214614    0.0600
36     H36     0.8585   -4.6490   -1.6806 H        1 ZINC000008214614    0.0600
37     H37     2.0057   -4.0650    0.4388 H        1 ZINC000008214614    0.0600
38     H38     0.4434   -4.0906    1.2914 H        1 ZINC000008214614    0.0600
39     H39     0.1486   -6.4755    0.6797 H        1 ZINC000008214614    0.0600
40     H40     1.7108   -6.4499   -0.1730 H        1 ZINC000008214614    0.0600
41     H41     2.8580   -5.8659    1.9464 H        1 ZINC000008214614    0.0600
42     H42     1.2958   -5.8914    2.7990 H        1 ZINC000008214614    0.0600
43     H43     1.0010   -8.2763    2.1873 H        1 ZINC000008214614    0.0600
44     H44     2.5632   -8.2507    1.3347 H        1 ZINC000008214614    0.0600
45     H45     3.7104   -7.6667    3.4540 H        1 ZINC000008214614    0.0600
46     H46     2.1481   -7.6923    4.3067 H        1 ZINC000008214614    0.0600
47     H47     1.8533  -10.0771    3.6949 H        1 ZINC000008214614    0.0600
48     H48     3.4155  -10.0516    2.8423 H        1 ZINC000008214614    0.0600
49     H49     4.5627   -9.4675    4.9616 H        1 ZINC000008214614    0.0600
50     H50     3.0005   -9.4931    5.8143 H        1 ZINC000008214614    0.0600
51     H51     2.7057  -11.8780    5.2025 H        1 ZINC000008214614    0.0600
52     H52     4.2679  -11.8524    4.3499 H        1 ZINC000008214614    0.0600
53     H53     5.4151  -11.2684    6.4692 H        1 ZINC000008214614    0.0600
54     H54     3.8529  -11.2940    7.3219 H        1 ZINC000008214614    0.0600
55     H55     3.5580  -13.6788    6.7102 H        1 ZINC000008214614    0.0700
56     H56     5.1203  -13.6532    5.8575 H        1 ZINC000008214614    0.0700
57     H57     6.2674  -13.0692    7.9768 H        1 ZINC000008214614    0.0700
58     H58     4.7052  -13.0948    8.8295 H        1 ZINC000008214614    0.0700
59     H59     4.4104  -15.4796    8.2178 H        1 ZINC000008214614    0.0500
60     H60     5.9726  -15.4541    7.3651 H        1 ZINC000008214614    0.0600
61     H61     6.9780  -18.5290   12.2359 H        1 ZINC000008214614    0.0800
62     H62     8.4589  -18.4070   11.2560 H        1 ZINC000008214614    0.1000
63     H63     9.0809  -18.3181   13.6126 H        1 ZINC000008214614    0.1400
64     H64     9.3306  -16.7055   12.9016 H        1 ZINC000008214614    0.1300
65     H65     7.0033  -18.7486   14.8411 H        1 ZINC000008214614    0.1200
66     H66     5.8982  -17.3951   15.1803 H        1 ZINC000008214614    0.1200
67     H67     6.0387  -18.0362   13.5257 H        1 ZINC000008214614    0.1300
68     H68     9.1981  -15.8776   15.2055 H        1 ZINC000008214614    0.1200
69     H69     7.7119  -16.1560   16.1446 H        1 ZINC000008214614    0.1200
70     H70     8.8170  -17.5095   15.8054 H        1 ZINC000008214614    0.1200
71     H71     6.3952  -15.8580   12.8359 H        1 ZINC000008214614    0.1400
72     H72     6.5710  -15.0962   14.4350 H        1 ZINC000008214614    0.1100
73     H73     7.8961  -14.9958   13.2509 H        1 ZINC000008214614    0.1200
@<TRIPOS>BOND
1     1     2     1
2     1     28    1
3     1     29    1
4     1     30    1
5     2     3     1
6     2     31    1
7     2     32    1
8     3     4     1
9     3     33    1
10    3     34    1
11    4     5     1
12    4     35    1
13    4     36    1
14    5     6     1
15    5     37    1
16    5     38    1
17    6     7     1
18    6     39    1
19    6     40    1
20    7     8     1
21    7     41    1
22    7     42    1
23    8     9     1
24    8     43    1
25    8     44    1
26    9     10    1
27    9     45    1
28    9     46    1
29    10    11    1
30    10    47    1
31    10    48    1
32    11    12    1
33    11    49    1
34    11    50    1
35    12    13    1
36    12    51    1
37    12    52    1
38    13    14    1
39    13    53    1
40    13    54    1
41    14    15    1
42    14    55    1
43    14    56    1
44    15    16    1
45    15    57    1
46    15    58    1
47    16    17    1
48    16    59    1
49    16    60    1
50    17    18    1
51    18    19    ar
52    18    20    ar
53    18    21    1
54    21    22    1
55    22    23    1
56    22    61    1
57    22    62    1
58    23    24    1
59    23    63    1
60    23    64    1
61    24    25    1
62    24    26    1
63    24    27    1
64    25    65    1
65    25    66    1
66    25    67    1
67    26    68    1
68    26    69    1
69    26    70    1
70    27    71    1
71    27    72    1
72    27    73    1
@<TRIPOS>SUBSTRUCTURE
1   ZINC000008214614 1     RESIDUE    1   A     ZIN   1
