@<TRIPOS>MOLECULE
ZINC000003831138
65   65    0    0    0
SMALL
USER_CHARGES
NO_NAME
@<TRIPOS>ATOM
1 C1       -0.0187     1.5258     0.0104 C.3    1 <0>      -0.1500
2 C2        0.0021    -0.0041     0.0020 C.3    1 <0>      -0.1300
3 C3        0.7421    -0.5109     1.2415 C.3    1 <0>      -0.1200
4 C4        0.7628    -2.0407     1.2331 C.3    1 <0>      -0.1500
5 C5        1.5028    -2.5476     2.4727 C.3    1 <0>       0.1400
6 C6        2.8966    -1.9188     2.5272 C.3    1 <0>      -0.1400
7 O7        0.7709    -2.1859     3.6455 O.3    1 <0>      -0.5500
8 C8        1.6327    -4.0704     2.4020 C.3    1 <0>      -0.1200
9 C9        2.3615    -4.5696     3.6229 C.2    1 <0>      -0.1300
10 C10       1.8157    -5.4872     4.3820 C.2    1 <0>      -0.1600
11 C11       2.5446    -5.9864     5.6029 C.3    1 <0>      -0.0400
12 H12       3.5001    -5.4736     5.7135 H      1 <0>       0.1000
13 C13       1.6749    -5.7971     6.8717 C.3    1 <0>       0.1100
14 H14       0.6243    -5.9891     6.6537 H      1 <0>       0.0700
15 O15       1.8476    -4.4869     7.4154 O.3    1 <0>      -0.5500
16 C16       2.2451    -6.8744     7.8274 C.3    1 <0>      -0.2200
17 C17       2.5546    -8.0555     6.9247 C.2    1 <0>       0.3800
18 O18       2.6298    -9.2128     7.2611 O.2    1 <0>      -0.4300
19 C19       2.7547    -7.5127     5.5225 C.3    1 <0>      -0.1400
20 H20       2.0228    -7.9524     4.8449 H      1 <0>       0.1100
21 C21       4.1712    -7.8272     5.0372 C.3    1 <0>      -0.1000
22 C22       4.3294    -9.3400     4.8715 C.3    1 <0>      -0.1300
23 C23       5.7459    -9.6545     4.3862 C.3    1 <0>      -0.1200
24 C24       5.9041   -11.1672     4.2205 C.3    1 <0>      -0.1200
25 C25       7.3206   -11.4818     3.7352 C.3    1 <0>      -0.1100
26 C26       7.4788   -12.9945     3.5695 C.3    1 <0>      -0.1100
27 C27       8.8740   -13.3043     3.0915 C.2    1 <0>       0.4600
28 O28       9.6611   -12.4072     2.9027 O.2    1 <0>      -0.5100
29 O29       9.2424   -14.5769     2.8755 O.3    1 <0>      -0.3600
30 C30      10.6013   -14.8008     2.4157 C.3    1 <0>       0.0300
31 H31       1.0039     1.9031     0.0027 H      1 <0>       0.0500
32 H32      -0.5459     1.8868    -0.8726 H      1 <0>       0.0500
33 H33      -0.5289     1.8773     0.9072 H      1 <0>       0.0500
34 H34      -1.0205    -0.3814     0.0098 H      1 <0>       0.0600
35 H35       0.5123    -0.3556    -0.8948 H      1 <0>       0.0600
36 H36       1.7647    -0.1336     1.2338 H      1 <0>       0.0700
37 H37       0.2319    -0.1594     2.1383 H      1 <0>       0.0700
38 H38      -0.2598    -2.4180     1.2409 H      1 <0>       0.0600
39 H39       1.2730    -2.3923     0.3363 H      1 <0>       0.0700
40 H40       2.8041    -0.8339     2.5775 H      1 <0>       0.0700
41 H41       3.4238    -2.2799     3.4102 H      1 <0>       0.0600
42 H42       3.4549    -2.1947     1.6326 H      1 <0>       0.0700
43 H43      -0.1242    -2.5504     3.6786 H      1 <0>       0.3700
44 H44       0.6397    -4.5183     2.3631 H      1 <0>       0.0700
45 H45       2.1910    -4.3463     1.5074 H      1 <0>       0.0800
46 H46       3.3339    -4.1710     3.8719 H      1 <0>       0.1100
47 H47       0.8434    -5.8858     4.1329 H      1 <0>       0.1100
48 H48       1.3241    -4.3190     8.2109 H      1 <0>       0.3800
49 H49       3.1545    -6.5140     8.3081 H      1 <0>       0.1100
50 H50       1.5021    -7.1513     8.5754 H      1 <0>       0.1000
51 H51       4.3444    -7.3367     4.0793 H      1 <0>       0.0800
52 H52       4.8944    -7.4641     5.7674 H      1 <0>       0.0700
53 H53       4.1562    -9.8305     5.8293 H      1 <0>       0.0800
54 H54       3.6062    -9.7031     4.1413 H      1 <0>       0.0600
55 H55       5.9191    -9.1640     3.4283 H      1 <0>       0.0600
56 H56       6.4691    -9.2914     5.1164 H      1 <0>       0.0600
57 H57       5.7309   -11.6577     5.1784 H      1 <0>       0.0700
58 H58       5.1809   -11.5304     3.4903 H      1 <0>       0.0700
59 H59       7.4938   -10.9912     2.7773 H      1 <0>       0.0700
60 H60       8.0438   -11.1186     4.4654 H      1 <0>       0.0700
61 H61       7.3056   -13.4850     4.5274 H      1 <0>       0.1100
62 H62       6.7556   -13.3576     2.8393 H      1 <0>       0.1100
63 H63      10.7678   -15.8695     2.2809 H      1 <0>       0.1000
64 H64      10.7532   -14.2867     1.4666 H      1 <0>       0.0600
65 H65      11.3032   -14.4141     3.1547 H      1 <0>       0.0600
@<TRIPOS>BOND
1    1    2 1
2    1   31 1
3    1   32 1
4    1   33 1
5    2    3 1
6    2   34 1
7    2   35 1
8    3    4 1
9    3   36 1
10    3   37 1
11    4    5 1
12    4   38 1
13    4   39 1
14    5    6 1
15    5    7 1
16    5    8 1
17    6   40 1
18    6   41 1
19    6   42 1
20    7   43 1
21    8    9 1
22    8   44 1
23    8   45 1
24    9   10 2
25    9   46 1
26   10   11 1
27   10   47 1
28   11   12 1
29   11   19 1
30   11   13 1
31   13   14 1
32   13   15 1
33   13   16 1
34   15   48 1
35   16   17 1
36   16   49 1
37   16   50 1
38   17   18 2
39   17   19 1
40   19   20 1
41   19   21 1
42   21   22 1
43   21   51 1
44   21   52 1
45   22   23 1
46   22   53 1
47   22   54 1
48   23   24 1
49   23   55 1
50   23   56 1
51   24   25 1
52   24   57 1
53   24   58 1
54   25   26 1
55   25   59 1
56   25   60 1
57   26   27 1
58   26   61 1
59   26   62 1
60   27   28 2
61   27   29 1
62   29   30 1
63   30   63 1
64   30   64 1
65   30   65 1
