@<TRIPOS>MOLECULE
ZINC000004693575
43   45    0    0    0
SMALL
USER_CHARGES
NO_NAME
@<TRIPOS>ATOM
1 C1       -0.0173     1.4248     0.0099 C.3    1 <0>       0.0300
2 O2        0.0021    -0.0041     0.0020 O.3    1 <0>      -0.3100
3 C3        0.6260    -0.6186     1.0418 C.ar   1 <0>       0.1600
4 C4        1.2028     0.1452     2.0524 C.ar   1 <0>      -0.2100
5 C5        1.8336    -0.4555     3.1044 C.ar   1 <0>      -0.0100
6 C6        1.9034    -1.8493     3.1725 C.ar   1 <0>       0.0000
7 N7        2.4476    -2.7162     4.0660 N.2    1 <0>      -0.4100
8 C8        2.2421    -3.9382     3.6708 C.2    1 <0>      -0.0800
9 S9        2.7779    -5.3804     4.5295 S.o    1 <0>       1.4000
10 O10       3.8714    -4.9046     5.3022 O.2    1 <0>      -0.7900
11 C11       1.3785    -5.7472     5.6240 C.3    1 <0>      -0.4100
12 C12       1.6874    -6.9760     6.4398 C.ar   1 <0>       0.1400
13 N13       1.3603    -8.1664     5.9741 N.ar   1 <0>      -0.4700
14 C14       1.6096    -9.2718     6.6507 C.ar   1 <0>       0.1100
15 C15       2.2280    -9.2222     7.8828 C.ar   1 <0>      -0.1500
16 C16       2.5092   -10.4897     8.6479 C.3    1 <0>      -0.1100
17 C17       2.5895    -7.9846     8.4098 C.ar   1 <0>       0.1400
18 O18       3.2001    -7.8944     9.6187 O.3    1 <0>      -0.3300
19 C19       4.6283    -7.9416     9.6293 C.3    1 <0>       0.0400
20 C20       2.3140    -6.8426     7.6621 C.ar   1 <0>      -0.1400
21 C21       2.6842    -5.4789     8.1858 C.3    1 <0>      -0.1200
22 N22       1.5522    -3.9404     2.4971 N.pl3  1 <0>      -0.5600
23 C23       1.3216    -2.6232     2.1539 C.ar   1 <0>       0.1100
24 C24       0.6795    -2.0000     1.0931 C.ar   1 <0>      -0.1600
25 H25       1.0053     1.8021     0.0021 H      1 <0>       0.0600
26 H26      -0.5445     1.7859    -0.8732 H      1 <0>       0.1000
27 H27      -0.5275     1.7763     0.9067 H      1 <0>       0.0600
28 H28       1.1514     1.2229     2.0041 H      1 <0>       0.1400
29 H29       2.2785     0.1464     3.8829 H      1 <0>       0.1400
30 H30       1.2074    -4.9020     6.2907 H      1 <0>       0.1200
31 H31       0.4853    -5.9239     5.0249 H      1 <0>       0.1400
32 H32       1.3256   -10.2272     6.2347 H      1 <0>       0.1700
33 H33       3.4943   -10.8680     8.3749 H      1 <0>       0.0700
34 H34       2.4835   -10.2817     9.7176 H      1 <0>       0.0800
35 H35       1.7531   -11.2362     8.4047 H      1 <0>       0.0800
36 H36       5.0235    -7.1148     9.0391 H      1 <0>       0.0500
37 H37       4.9869    -7.8597    10.6553 H      1 <0>       0.1000
38 H38       4.9637    -8.8863     9.2015 H      1 <0>       0.0500
39 H39       3.6925    -5.2254     7.8585 H      1 <0>       0.0900
40 H40       1.9811    -4.7394     7.8027 H      1 <0>       0.0700
41 H41       2.6467    -5.4857     9.2752 H      1 <0>       0.0800
42 H42       1.2746    -4.7225     1.9948 H      1 <0>       0.4300
43 H43       0.2271    -2.5903     0.3100 H      1 <0>       0.1400
@<TRIPOS>BOND
1    1    2 1
2    1   25 1
3    1   26 1
4    1   27 1
5    2    3 1
6    3   24 ar
7    3    4 ar
8    4    5 ar
9    4   28 1
10    5    6 ar
11    5   29 1
12    6   23 ar
13    6    7 1
14    7    8 2
15    8    9 1
16    8   22 1
17    9   10 2
18    9   11 1
19   11   12 1
20   11   30 1
21   11   31 1
22   12   20 ar
23   12   13 ar
24   13   14 ar
25   14   15 ar
26   14   32 1
27   15   16 1
28   15   17 ar
29   16   33 1
30   16   34 1
31   16   35 1
32   17   18 1
33   17   20 ar
34   18   19 1
35   19   36 1
36   19   37 1
37   19   38 1
38   20   21 1
39   21   39 1
40   21   40 1
41   21   41 1
42   22   23 1
43   22   42 1
44   23   24 ar
45   24   43 1
