@<TRIPOS>MOLECULE
ZINC000000011012
31   33    0    0    0
SMALL
USER_CHARGES
NO_NAME
@<TRIPOS>ATOM
1 O1       -0.5318     0.2922    -0.8042 O.co2  1 <0>      -0.6900
2 C2       -0.4348     1.4930    -0.6168 C.2    1 <0>       0.5100
3 O3        0.6660     2.0138    -0.5581 O.co2  1 <0>      -0.6800
4 C4       -1.6756     2.3345    -0.4639 C.3    1 <0>      -0.1200
5 H5       -2.0126     2.6955    -1.4356 H      1 <0>       0.0900
6 C6       -2.7946     1.5263     0.2302 C.3    1 <0>      -0.1100
7 C7       -3.4807     2.6086     1.0901 C.3    1 <0>       0.1000
8 N8       -2.4472     3.6262     1.3440 N.pl3  1 <0>      -0.4400
9 C9       -2.1769     4.6876     2.1875 C.2    1 <0>      -0.0900
10 C10      -3.0313     5.1665     3.2764 C.2    1 <0>       0.4600
11 O11      -4.0306     4.5436     3.5848 O.2    1 <0>      -0.4800
12 C12      -2.6800     6.4068     4.0011 C.ar   1 <0>      -0.1400
13 C13      -1.9713     7.4204     3.3535 C.ar   1 <0>      -0.0800
14 C14      -1.6472     8.5750     4.0352 C.ar   1 <0>      -0.1300
15 C15      -2.0229     8.7297     5.3580 C.ar   1 <0>      -0.1000
16 C16      -2.7250     7.7288     6.0059 C.ar   1 <0>      -0.1300
17 C17      -3.0605     6.5716     5.3342 C.ar   1 <0>      -0.0700
18 C18      -0.9559     5.2138     1.8179 C.2    1 <0>      -0.1200
19 C19      -0.4913     4.4559     0.7423 C.2    1 <0>      -0.1800
20 C20      -1.4155     3.4976     0.4731 C.2    1 <0>       0.1000
21 H21      -3.4881     1.1126    -0.5020 H      1 <0>       0.0900
22 H22      -2.3756     0.7386     0.8564 H      1 <0>       0.0900
23 H23      -4.3167     3.0482     0.5460 H      1 <0>       0.0800
24 H24      -3.8263     2.1796     2.0306 H      1 <0>       0.0900
25 H25      -1.6772     7.3008     2.3212 H      1 <0>       0.1400
26 H26      -1.0987     9.3598     3.5356 H      1 <0>       0.1300
27 H27      -1.7667     9.6357     5.8872 H      1 <0>       0.1200
28 H28      -3.0146     7.8555     7.0386 H      1 <0>       0.1300
29 H29      -3.6088     5.7912     5.8409 H      1 <0>       0.1300
30 H30      -0.4543     6.0539     2.2751 H      1 <0>       0.1500
31 H31       0.4388     4.6057     0.2143 H      1 <0>       0.1500
@<TRIPOS>BOND
1    1    2 ar
2    2    3 ar
3    2    4 1
4    4    5 1
5    4   20 1
6    4    6 1
7    6    7 1
8    6   21 1
9    6   22 1
10    7    8 1
11    7   23 1
12    7   24 1
13    8   20 1
14    8    9 1
15    9   10 1
16    9   18 2
17   10   11 2
18   10   12 1
19   12   17 ar
20   12   13 ar
21   13   14 ar
22   13   25 1
23   14   15 ar
24   14   26 1
25   15   16 ar
26   15   27 1
27   16   17 ar
28   16   28 1
29   17   29 1
30   18   19 1
31   18   30 1
32   19   20 2
33   19   31 1
