@<TRIPOS>MOLECULE
ZINC000000002216
23   24    0    0    0
SMALL
USER_CHARGES
NO_NAME
@<TRIPOS>ATOM
1 O1        1.2247     2.2204    -2.3902 O.3    1 <0>      -0.6900
2 C2        0.6022     2.4813    -1.2096 C.ar   1 <0>       0.2800
3 C3       -0.6090     3.1533    -1.1974 C.ar   1 <0>      -0.2500
4 C4       -1.2413     3.4175     0.0049 C.ar   1 <0>       0.0300
5 Cl5      -2.7592     4.2598     0.0186 Cl     1 <0>      -0.1100
6 C6       -0.6664     3.0114     1.1956 C.ar   1 <0>      -0.2500
7 C7        0.5425     2.3402     1.1895 C.ar   1 <0>      -0.0500
8 C8        1.1781     2.0684    -0.0113 C.ar   1 <0>      -0.1000
9 O9        2.3670     1.4084    -0.0186 O.3    1 <0>      -0.2200
10 C10       3.5040     2.1431    -0.1400 C.ar   1 <0>       0.1700
11 C11       3.4396     3.5285    -0.1342 C.ar   1 <0>      -0.1700
12 C12       4.5966     4.2739    -0.2578 C.ar   1 <0>      -0.0700
13 C13       5.8191     3.6395    -0.3878 C.ar   1 <0>      -0.0800
14 Cl14      7.2707     4.5788    -0.5434 Cl     1 <0>      -0.0800
15 C15       5.8867     2.2572    -0.3934 C.ar   1 <0>      -0.0700
16 C16       4.7327     1.5078    -0.2644 C.ar   1 <0>      -0.0700
17 Cl17      4.8174    -0.2261    -0.2715 Cl     1 <0>      -0.0600
18 H18      -1.0596     3.4713    -2.1259 H      1 <0>       0.1100
19 H19      -1.1626     3.2192     2.1321 H      1 <0>       0.1100
20 H20       0.9895     2.0244     2.1205 H      1 <0>       0.1100
21 H21       2.4856     4.0246    -0.0335 H      1 <0>       0.1400
22 H22       4.5464     5.3527    -0.2533 H      1 <0>       0.1400
23 H23       6.8421     1.7640    -0.4947 H      1 <0>       0.1400
@<TRIPOS>BOND
1    1    2 1
2    2    8 ar
3    2    3 ar
4    3    4 ar
5    3   18 1
6    4    5 1
7    4    6 ar
8    6    7 ar
9    6   19 1
10    7    8 ar
11    7   20 1
12    8    9 1
13    9   10 1
14   10   16 ar
15   10   11 ar
16   11   12 ar
17   11   21 1
18   12   13 ar
19   12   22 1
20   13   14 1
21   13   15 ar
22   15   16 ar
23   15   23 1
24   16   17 1
