@<TRIPOS>MOLECULE
ZINC000003798734
49    49    1     0     0
SMALL
USER_CHARGES
@<TRIPOS>ATOM
1      C1     -0.3911    0.7284    0.2839 C.3      1 ZINC000003798734    0.0300
2      O2      1.0245    0.8535    0.1336 O.3      1 ZINC000003798734   -0.3200
3      C3      1.5890    0.2276   -0.9307 C.ar     1 ZINC000003798734    0.1300
4      C4      0.7913   -0.4886   -1.8158 C.ar     1 ZINC000003798734   -0.2100
5      C5      1.3583   -1.1257   -2.8965 C.ar     1 ZINC000003798734   -0.0400
6      C6      0.4923   -1.9017   -3.8551 C.3      1 ZINC000003798734   -0.1200
7      C7      2.7416   -1.0509   -3.1035 C.ar     1 ZINC000003798734   -0.0900
8      C8      3.3519   -1.7278   -4.2543 C.2      1 ZINC000003798734   -0.1200
9      C9      2.9397   -1.4316   -5.5125 C.2      1 ZINC000003798734   -0.0900
10     C10     3.4504   -2.1515   -6.6076 C.2      1 ZINC000003798734   -0.1200
11     C11     4.4554   -3.2518   -6.3834 C.3      1 ZINC000003798734   -0.1200
12     C12     3.0357   -1.8535   -7.8733 C.2      1 ZINC000003798734   -0.0900
13     C13     3.5446   -2.5709   -8.9645 C.2      1 ZINC000003798734   -0.1600
14     C14     3.1262   -2.2702  -10.2415 C.2      1 ZINC000003798734   -0.0700
15     C15     3.6345   -2.9868  -11.3316 C.2      1 ZINC000003798734   -0.0900
16     C16     4.6395   -4.0872  -11.1074 C.3      1 ZINC000003798734   -0.1000
17     C17     3.2161   -2.6862  -12.6086 C.2      1 ZINC000003798734   -0.1300
18     C18     3.6005   -3.5028  -13.6835 C.2      1 ZINC000003798734    0.4400
19     O19     4.2958   -4.6188  -13.4580 O.co2    1 ZINC000003798734   -0.6900
20     O20     3.2705   -3.1629  -14.9307 O.co2    1 ZINC000003798734   -0.7100
21     C21     3.5405   -0.3273   -2.2084 C.ar     1 ZINC000003798734   -0.0400
22     C22     5.0295   -0.2422   -2.4244 C.3      1 ZINC000003798734   -0.1200
23     C23     2.9620    0.3100   -1.1345 C.ar     1 ZINC000003798734   -0.1300
24     C24     3.8199    1.0887   -0.1708 C.3      1 ZINC000003798734   -0.1100
25     H25    -0.8876    1.1397   -0.5949 H        1 ZINC000003798734    0.0500
26     H26    -0.6535   -0.3242    0.3902 H        1 ZINC000003798734    0.0500
27     H27    -0.7118    1.2742    1.1712 H        1 ZINC000003798734    0.1000
28     H28    -0.2751   -0.5456   -1.6551 H        1 ZINC000003798734    0.1300
29     H29     0.1120   -1.2311   -4.6256 H        1 ZINC000003798734    0.0700
30     H30     1.0823   -2.6917   -4.3198 H        1 ZINC000003798734    0.0800
31     H31    -0.3438   -2.3437   -3.3131 H        1 ZINC000003798734    0.0600
32     H32     4.1291   -2.4615   -4.0994 H        1 ZINC000003798734    0.1200
33     H33     2.2195   -0.6430   -5.6731 H        1 ZINC000003798734    0.1100
34     H34     3.9327   -4.1974   -6.2389 H        1 ZINC000003798734    0.0700
35     H35     5.1106   -3.3278   -7.2512 H        1 ZINC000003798734    0.0700
36     H36     5.0497   -3.0262   -5.4980 H        1 ZINC000003798734    0.0600
37     H37     2.3155   -1.0650   -8.0339 H        1 ZINC000003798734    0.1100
38     H38     4.2648   -3.3594   -8.8038 H        1 ZINC000003798734    0.1300
39     H39     2.4060   -1.4817  -10.4022 H        1 ZINC000003798734    0.1100
40     H40     4.1243   -5.0468  -11.0650 H        1 ZINC000003798734    0.0700
41     H41     5.3574   -4.0962  -11.9275 H        1 ZINC000003798734    0.1000
42     H42     5.1638   -3.9144  -10.1675 H        1 ZINC000003798734    0.0300
43     H43     2.5923   -1.8220  -12.7831 H        1 ZINC000003798734    0.1100
44     H44     5.2577    0.6249   -3.0442 H        1 ZINC000003798734    0.0700
45     H45     5.5312   -0.1429   -1.4619 H        1 ZINC000003798734    0.0700
46     H46     5.3765   -1.1470   -2.9235 H        1 ZINC000003798734    0.0700
47     H47     3.8997    2.1220   -0.5086 H        1 ZINC000003798734    0.0700
48     H48     3.3669    1.0644    0.8203 H        1 ZINC000003798734    0.0700
49     H49     4.8137    0.6430   -0.1271 H        1 ZINC000003798734    0.0700
@<TRIPOS>BOND
1     1     2     1
2     1     25    1
3     1     26    1
4     1     27    1
5     2     3     1
6     3     23    ar
7     3     4     ar
8     4     5     ar
9     4     28    1
10    5     6     1
11    5     7     ar
12    6     29    1
13    6     30    1
14    6     31    1
15    7     8     1
16    7     21    ar
17    8     9     2
18    8     32    1
19    9     10    1
20    9     33    1
21    10    11    1
22    10    12    2
23    11    34    1
24    11    35    1
25    11    36    1
26    12    13    1
27    12    37    1
28    13    14    2
29    13    38    1
30    14    15    1
31    14    39    1
32    15    16    1
33    15    17    2
34    16    40    1
35    16    41    1
36    16    42    1
37    17    18    1
38    17    43    1
39    18    19    ar
40    18    20    ar
41    21    22    1
42    21    23    ar
43    22    44    1
44    22    45    1
45    22    46    1
46    23    24    1
47    24    47    1
48    24    48    1
49    24    49    1
@<TRIPOS>SUBSTRUCTURE
1   ZINC000003798734 1     RESIDUE    1   A     ZIN   1
