@<TRIPOS>MOLECULE
ZINC000001530611
43    45    1     0     0
SMALL
USER_CHARGES
@<TRIPOS>ATOM
1      C1     -5.6812    1.3614   -0.3821 C.3      1 ZINC000001530611   -0.0500
2      N2     -5.6577   -0.0978   -0.2147 N.4      1 ZINC000001530611   -0.5100
3      H3     -6.1121   -0.3443    0.6518 H        1 ZINC000001530611    0.4300
4      H4     -6.1436   -0.5326   -0.9848 H        1 ZINC000001530611    0.4300
5      C5     -4.2654   -0.5653   -0.1876 C.3      1 ZINC000001530611   -0.0100
6      C6     -4.2409   -2.0851   -0.0133 C.3      1 ZINC000001530611   -0.1800
7      C7     -2.7907   -2.5720    0.0149 C.3      1 ZINC000001530611    0.1500
8      N8     -2.7680   -4.0325    0.1272 N.pl3    1 ZINC000001530611   -0.6100
9      C9     -2.6912   -4.8426   -1.0117 C.ar     1 ZINC000001530611    0.1800
10     C10    -1.6158   -4.6463   -1.8728 C.ar     1 ZINC000001530611   -0.1400
11     C11    -1.4637   -5.4337   -2.9947 C.ar     1 ZINC000001530611   -0.1000
12     C12    -2.3925   -6.4251   -3.2534 C.ar     1 ZINC000001530611   -0.1300
13     C13    -3.4634   -6.6101   -2.4092 C.ar     1 ZINC000001530611   -0.1100
14     C14    -3.6456   -5.8122   -1.2778 C.ar     1 ZINC000001530611   -0.1000
15     C15    -4.9139   -6.0940   -0.5038 C.3      1 ZINC000001530611   -0.0700
16     C16    -5.1110   -5.1593    0.6763 C.3      1 ZINC000001530611   -0.0800
17     C17    -3.9960   -5.3023    1.6795 C.ar     1 ZINC000001530611   -0.1000
18     C18    -4.1284   -6.0240    2.8434 C.ar     1 ZINC000001530611   -0.1000
19     C19    -3.0550   -6.0765    3.7216 C.ar     1 ZINC000001530611   -0.1200
20     C20    -1.8775   -5.4123    3.4308 C.ar     1 ZINC000001530611   -0.1100
21     C21    -1.7499   -4.6951    2.2516 C.ar     1 ZINC000001530611   -0.1200
22     C22    -2.8165   -4.6609    1.3771 C.ar     1 ZINC000001530611    0.1500
23     H23    -6.7143    1.7083   -0.4022 H        1 ZINC000001530611    0.1300
24     H24    -5.1564    1.8311    0.4498 H        1 ZINC000001530611    0.1200
25     H25    -5.1903    1.6277   -1.3182 H        1 ZINC000001530611    0.1200
26     H26    -3.7745   -0.2990   -1.1237 H        1 ZINC000001530611    0.1300
27     H27    -3.7405   -0.0956    0.6442 H        1 ZINC000001530611    0.1300
28     H28    -4.7318   -2.3513    0.9228 H        1 ZINC000001530611    0.0900
29     H29    -4.7658   -2.5547   -0.8452 H        1 ZINC000001530611    0.0900
30     H30    -2.2883   -2.2704   -0.9042 H        1 ZINC000001530611    0.0800
31     H31    -2.2769   -2.1337    0.8705 H        1 ZINC000001530611    0.0800
32     H32    -0.8946   -3.8708   -1.6610 H        1 ZINC000001530611    0.1200
33     H33    -0.6299   -5.2778   -3.6632 H        1 ZINC000001530611    0.1300
34     H34    -2.2771   -7.0567   -4.1219 H        1 ZINC000001530611    0.1300
35     H35    -4.1784   -7.3899   -2.6263 H        1 ZINC000001530611    0.1200
36     H36    -5.7652   -5.9930   -1.1770 H        1 ZINC000001530611    0.0800
37     H37    -4.8801   -7.1198   -0.1368 H        1 ZINC000001530611    0.0800
38     H38    -5.1377   -4.1308    0.3165 H        1 ZINC000001530611    0.0700
39     H39    -6.0593   -5.3915    1.1611 H        1 ZINC000001530611    0.0700
40     H40    -5.0501   -6.5395    3.0694 H        1 ZINC000001530611    0.1300
41     H41    -3.1401   -6.6400    4.6390 H        1 ZINC000001530611    0.1300
42     H42    -1.0526   -5.4524    4.1267 H        1 ZINC000001530611    0.1300
43     H43    -0.8333   -4.1729    2.0202 H        1 ZINC000001530611    0.1300
@<TRIPOS>BOND
1     1     2     1
2     1     23    1
3     1     24    1
4     1     25    1
5     2     3     1
6     2     4     1
7     2     5     1
8     5     6     1
9     5     26    1
10    5     27    1
11    6     7     1
12    6     28    1
13    6     29    1
14    7     8     1
15    7     30    1
16    7     31    1
17    8     22    1
18    8     9     1
19    9     14    ar
20    9     10    ar
21    10    11    ar
22    10    32    1
23    11    12    ar
24    11    33    1
25    12    13    ar
26    12    34    1
27    13    14    ar
28    13    35    1
29    14    15    1
30    15    16    1
31    15    36    1
32    15    37    1
33    16    17    1
34    16    38    1
35    16    39    1
36    17    22    ar
37    17    18    ar
38    18    19    ar
39    18    40    1
40    19    20    ar
41    19    41    1
42    20    21    ar
43    20    42    1
44    21    22    ar
45    21    43    1
@<TRIPOS>SUBSTRUCTURE
1   ZINC000001530611 1     RESIDUE    1   A     ZIN   1
