@<TRIPOS>MOLECULE
ZINC000003830842
49    50    1     0     0
SMALL
USER_CHARGES
@<TRIPOS>ATOM
1      O1      0.0021   -0.0041    0.0020 O.2      1 ZINC000003830842   -0.4800
2      C2     -0.0144    1.2117    0.0087 C.2      1 ZINC000003830842    0.5700
3      N3      1.1435    1.9014    0.0014 N.am     1 ZINC000003830842   -0.7500
4      C4      2.4220    1.1862   -0.0147 C.3      1 ZINC000003830842    0.1000
5      C5      3.5713    2.1962   -0.0202 C.3      1 ZINC000003830842    0.0200
6      H6      3.5482    2.7670   -0.9485 H        1 ZINC000003830842    0.1500
7      C7      4.9040    1.4520    0.0873 C.3      1 ZINC000003830842   -0.1400
8      C8      6.0509    2.4667    0.0810 C.3      1 ZINC000003830842   -0.1400
9      C9      5.8468    3.4602    1.2285 C.3      1 ZINC000003830842   -0.1500
10     C10     4.4791    4.1299    1.0787 C.3      1 ZINC000003830842   -0.0100
11     N11     3.4243    3.1099    1.1191 N.4      1 ZINC000003830842   -0.5100
12     H12     2.5218    3.5589    1.0739 H        1 ZINC000003830842    0.4200
13     H13     3.4962    2.5872    1.9791 H        1 ZINC000003830842    0.4300
14     C14    -1.3020    1.9320    0.0187 C.ar     1 ZINC000003830842   -0.1400
15     C15    -1.3251    3.3285    0.0207 C.ar     1 ZINC000003830842   -0.0800
16     C16    -2.5355    3.9969    0.0301 C.ar     1 ZINC000003830842    0.0900
17     O17    -2.5593    5.3566    0.0320 O.3      1 ZINC000003830842   -0.3000
18     C18    -3.8436    5.9830    0.0419 C.3      1 ZINC000003830842    0.0100
19     C19    -3.6697    7.5031    0.0426 C.3      1 ZINC000003830842    0.4700
20     F20    -2.9696    7.8928   -1.1042 F        1 ZINC000003830842   -0.1700
21     F21    -4.9271    8.1163    0.0523 F        1 ZINC000003830842   -0.1700
22     F22    -2.9534    7.8900    1.1803 F        1 ZINC000003830842   -0.1700
23     C23    -3.7274    3.2833    0.0372 C.ar     1 ZINC000003830842   -0.1200
24     C24    -3.7136    1.9026    0.0354 C.ar     1 ZINC000003830842   -0.1700
25     C25    -2.5080    1.2184    0.0206 C.ar     1 ZINC000003830842    0.1600
26     O26    -2.4957   -0.1389    0.0188 O.3      1 ZINC000003830842   -0.2700
27     C27    -3.7629   -0.7992    0.0327 C.3      1 ZINC000003830842    0.0000
28     C28    -3.5487   -2.3141    0.0284 C.3      1 ZINC000003830842    0.4700
29     F29    -2.8172   -2.6849    1.1618 F        1 ZINC000003830842   -0.1700
30     F30    -4.7893   -2.9605    0.0421 F        1 ZINC000003830842   -0.1700
31     F31    -2.8437   -2.6821   -1.1226 F        1 ZINC000003830842   -0.1700
32     H32     1.1303    2.8713    0.0067 H        1 ZINC000003830842    0.3900
33     H33     2.4967    0.5557    0.8712 H        1 ZINC000003830842    0.1000
34     H34     2.4797    0.5652   -0.9086 H        1 ZINC000003830842    0.1200
35     H35     4.9281    0.8810    1.0154 H        1 ZINC000003830842    0.0900
36     H36     5.0122    0.7751   -0.7602 H        1 ZINC000003830842    0.1200
37     H37     6.9991    1.9458    0.2143 H        1 ZINC000003830842    0.1000
38     H38     6.0583    3.0026   -0.8681 H        1 ZINC000003830842    0.0800
39     H39     5.8905    2.9308    2.1803 H        1 ZINC000003830842    0.0900
40     H40     6.6289    4.2186    1.1967 H        1 ZINC000003830842    0.1100
41     H41     4.3306    4.8381    1.8939 H        1 ZINC000003830842    0.1400
42     H42     4.4365    4.6591    0.1267 H        1 ZINC000003830842    0.1300
43     H43    -0.3995    3.8851    0.0151 H        1 ZINC000003830842    0.1400
44     H44    -4.4018    5.6815   -0.8445 H        1 ZINC000003830842    0.1100
45     H45    -4.3891    5.6793    0.9354 H        1 ZINC000003830842    0.1100
46     H46    -4.6696    3.8112    0.0446 H        1 ZINC000003830842    0.1500
47     H47    -4.6442    1.3545    0.0413 H        1 ZINC000003830842    0.1500
48     H48    -4.3122   -0.5124    0.9295 H        1 ZINC000003830842    0.1100
49     H49    -4.3328   -0.5103   -0.8504 H        1 ZINC000003830842    0.1100
@<TRIPOS>BOND
1     1     2     2
2     2     3     am
3     2     14    1
4     3     4     1
5     3     32    1
6     4     5     1
7     4     33    1
8     4     34    1
9     5     6     1
10    5     11    1
11    5     7     1
12    7     8     1
13    7     35    1
14    7     36    1
15    8     9     1
16    8     37    1
17    8     38    1
18    9     10    1
19    9     39    1
20    9     40    1
21    10    11    1
22    10    41    1
23    10    42    1
24    11    12    1
25    11    13    1
26    14    25    ar
27    14    15    ar
28    15    16    ar
29    15    43    1
30    16    17    1
31    16    23    ar
32    17    18    1
33    18    19    1
34    18    44    1
35    18    45    1
36    19    20    1
37    19    21    1
38    19    22    1
39    23    24    ar
40    23    46    1
41    24    25    ar
42    24    47    1
43    25    26    1
44    26    27    1
45    27    28    1
46    27    48    1
47    27    49    1
48    28    29    1
49    28    30    1
50    28    31    1
@<TRIPOS>SUBSTRUCTURE
1   ZINC000003830842 1     RESIDUE    1   A     ZIN   1
