@<TRIPOS>MOLECULE
ZINC000003939013
61    64    1     0     0
SMALL
USER_CHARGES
@<TRIPOS>ATOM
1      C1     -0.0187    1.5258    0.0104 C.3      1 ZINC000003939013   -0.1700
2      C2      0.0021   -0.0041    0.0020 C.3      1 ZINC000003939013    0.1300
3      H3      0.5123   -0.3556   -0.8948 H        1 ZINC000003939013    0.0800
4      O4      0.6932   -0.4774    1.1597 O.3      1 ZINC000003939013   -0.3700
5      C5      2.0985   -0.6511    0.9672 C.3      1 ZINC000003939013    0.2700
6      H6      2.2727   -1.2341    0.0628 H        1 ZINC000003939013    0.1100
7      O7      2.7246    0.6283    0.8386 O.3      1 ZINC000003939013   -0.3800
8      C8      2.5777    1.4598    1.9928 C.3      1 ZINC000003939013    0.0700
9      C9      3.1767    0.7471    3.2082 C.3      1 ZINC000003939013    0.0000
10     N10     2.5222   -0.5586    3.3759 N.3      1 ZINC000003939013   -0.5000
11     C11     3.0294   -1.2526    4.5672 C.3      1 ZINC000003939013    0.1400
12     C12     4.4811   -1.6026    4.3647 C.2      1 ZINC000003939013    0.1800
13     N13     5.1811   -1.3317    3.3106 N.2      1 ZINC000003939013   -0.2300
14     N14     6.4794   -1.8203    3.5114 N.am     1 ZINC000003939013   -0.6900
15     P15     7.7309   -1.7169    2.4565 P.3      1 ZINC000003939013    2.1800
16     O16     7.1794   -1.7181    0.9902 O.co2    1 ZINC000003939013   -1.1500
17     O17     8.5237   -0.3906    2.7152 O.co2    1 ZINC000003939013   -1.1700
18     O18     8.6852   -2.9432    2.6566 O.co2    1 ZINC000003939013   -1.1500
19     C19     6.5088   -2.3912    4.7338 C.2      1 ZINC000003939013    0.6400
20     O20     7.4702   -2.9253    5.2574 O.2      1 ZINC000003939013   -0.5400
21     N21     5.2797   -2.2562    5.2712 N.am     1 ZINC000003939013   -0.6700
22     C22     2.6925   -1.3862    2.1716 C.3      1 ZINC000003939013    0.0800
23     H23     3.7539   -1.5664    2.0009 H        1 ZINC000003939013    0.1300
24     C24     1.9828   -2.7020    2.3608 C.ar     1 ZINC000003939013   -0.0800
25     C25     0.7477   -2.7377    2.9810 C.ar     1 ZINC000003939013   -0.0500
26     C26     0.0959   -3.9438    3.1551 C.ar     1 ZINC000003939013   -0.1700
27     C27     0.6801   -5.1167    2.7076 C.ar     1 ZINC000003939013    0.0900
28     F28     0.0436   -6.2963    2.8768 F        1 ZINC000003939013   -0.1500
29     C29     1.9168   -5.0797    2.0862 C.ar     1 ZINC000003939013   -0.1600
30     C30     2.5646   -3.8718    1.9089 C.ar     1 ZINC000003939013   -0.0700
31     C31    -1.4117   -0.5257    0.0127 C.ar     1 ZINC000003939013   -0.0700
32     C32    -2.1228   -0.5709    1.1973 C.ar     1 ZINC000003939013   -0.0100
33     C33    -3.4197   -1.0494    1.2071 C.ar     1 ZINC000003939013   -0.1900
34     C34    -4.1947   -1.0992    2.4986 C.3      1 ZINC000003939013    0.5100
35     F35    -4.8859    0.1043    2.6743 F        1 ZINC000003939013   -0.1800
36     F36    -5.1070   -2.1589    2.4544 F        1 ZINC000003939013   -0.1800
37     F37    -3.3105   -1.2894    3.5660 F        1 ZINC000003939013   -0.1700
38     C38    -4.0058   -1.4818    0.0322 C.ar     1 ZINC000003939013   -0.0300
39     C39    -3.2949   -1.4361   -1.1525 C.ar     1 ZINC000003939013   -0.1900
40     C40    -3.9337   -1.9079   -2.4332 C.3      1 ZINC000003939013    0.5100
41     F41    -5.2374   -2.3426   -2.1715 F        1 ZINC000003939013   -0.1800
42     F42    -3.9692   -0.8539   -3.3525 F        1 ZINC000003939013   -0.1700
43     F43    -3.1874   -2.9652   -2.9647 F        1 ZINC000003939013   -0.1700
44     C44    -1.9995   -0.9536   -1.1630 C.ar     1 ZINC000003939013   -0.0300
45     H45     1.0039    1.9031    0.0027 H        1 ZINC000003939013    0.0800
46     H46    -0.5459    1.8868   -0.8726 H        1 ZINC000003939013    0.0600
47     H47    -0.5289    1.8773    0.9072 H        1 ZINC000003939013    0.0600
48     H48     3.0990    2.4032    1.8306 H        1 ZINC000003939013    0.1000
49     H49     1.5197    1.6536    2.1695 H        1 ZINC000003939013    0.0600
50     H50     4.2459    0.6012    3.0541 H        1 ZINC000003939013    0.0800
51     H51     3.0162    1.3520    4.1006 H        1 ZINC000003939013    0.0800
52     H52     2.9303   -0.6022    5.4363 H        1 ZINC000003939013    0.1000
53     H53     2.4548   -2.1647    4.7285 H        1 ZINC000003939013    0.1000
54     H54     5.0045   -2.5727    6.1458 H        1 ZINC000003939013    0.4100
55     H55     0.2923   -1.8227    3.3300 H        1 ZINC000003939013    0.1400
56     H56    -0.8686   -3.9715    3.6402 H        1 ZINC000003939013    0.1300
57     H57     2.3735   -5.9940    1.7370 H        1 ZINC000003939013    0.1300
58     H58     3.5291   -3.8427    1.4239 H        1 ZINC000003939013    0.1400
59     H59    -1.6650   -0.2328    2.1152 H        1 ZINC000003939013    0.1600
60     H60    -5.0190   -1.8556    0.0399 H        1 ZINC000003939013    0.1500
61     H61    -1.4441   -0.9179   -2.0886 H        1 ZINC000003939013    0.1500
@<TRIPOS>BOND
1     1     2     1
2     1     45    1
3     1     46    1
4     1     47    1
5     2     3     1
6     2     4     1
7     2     31    1
8     4     5     1
9     5     6     1
10    5     22    1
11    5     7     1
12    7     8     1
13    8     9     1
14    8     48    1
15    8     49    1
16    9     10    1
17    9     50    1
18    9     51    1
19    10    11    1
20    10    22    1
21    11    12    1
22    11    52    1
23    11    53    1
24    12    21    1
25    12    13    2
26    13    14    1
27    14    15    1
28    14    19    am
29    15    16    ar
30    15    17    ar
31    15    18    ar
32    19    20    2
33    19    21    am
34    21    54    1
35    22    23    1
36    22    24    1
37    24    30    ar
38    24    25    ar
39    25    26    ar
40    25    55    1
41    26    27    ar
42    26    56    1
43    27    28    1
44    27    29    ar
45    29    30    ar
46    29    57    1
47    30    58    1
48    31    44    ar
49    31    32    ar
50    32    33    ar
51    32    59    1
52    33    34    1
53    33    38    ar
54    34    35    1
55    34    36    1
56    34    37    1
57    38    39    ar
58    38    60    1
59    39    40    1
60    39    44    ar
61    40    41    1
62    40    42    1
63    40    43    1
64    44    61    1
@<TRIPOS>SUBSTRUCTURE
1   ZINC000003939013 1     RESIDUE    1   A     ZIN   1
