@<TRIPOS>MOLECULE
ZINC000001530803
31   31    0    0    0
SMALL
USER_CHARGES
NO_NAME
@<TRIPOS>ATOM
1 N1       -0.0162     1.3436     0.0094 N.am   1 <0>      -0.8300
2 C2        0.0021    -0.0041     0.0020 C.2    1 <0>       0.6500
3 O3        1.0625    -0.5972    -0.0113 O.2    1 <0>      -0.5800
4 O4       -1.1546    -0.6931     0.0094 O.3    1 <0>      -0.3500
5 C5       -1.0590    -2.1419     0.0007 C.3    1 <0>       0.1000
6 C6       -2.4647    -2.7459     0.0108 C.3    1 <0>      -0.0400
7 C7       -3.1864    -2.3801    -1.2877 C.3    1 <0>       0.1000
8 O8       -3.3862    -0.9429    -1.3421 O.3    1 <0>      -0.3500
9 C9       -4.0121    -0.4535    -2.4290 C.2    1 <0>       0.6500
10 N10      -4.2291     0.8719    -2.5420 N.am   1 <0>      -0.8300
11 O11      -4.3813    -1.2067    -3.3082 O.2    1 <0>      -0.5800
12 C12      -2.3664    -4.2452     0.1257 C.ar   1 <0>      -0.0900
13 C13      -1.6935    -4.9698    -0.8403 C.ar   1 <0>      -0.1100
14 C14      -1.6033    -6.3452    -0.7350 C.ar   1 <0>      -0.1200
15 C15      -2.1856    -6.9960     0.3366 C.ar   1 <0>      -0.1100
16 C16      -2.8577    -6.2713     1.3031 C.ar   1 <0>      -0.1200
17 C17      -2.9442    -4.8955     1.2000 C.ar   1 <0>      -0.1000
18 H18       0.8172     1.8399     0.0041 H      1 <0>       0.4300
19 H19      -0.8627     1.8171     0.0160 H      1 <0>       0.4100
20 H20      -0.5309    -2.4658    -0.8961 H      1 <0>       0.0700
21 H21      -0.5139    -2.4753     0.8837 H      1 <0>       0.0800
22 H22      -3.0231    -2.3522     0.8602 H      1 <0>       0.1100
23 H23      -2.5839    -2.6956    -2.1395 H      1 <0>       0.0700
24 H24      -4.1530    -2.8827    -1.3202 H      1 <0>       0.0800
25 H25      -3.9344     1.4732    -1.8402 H      1 <0>       0.4100
26 H26      -4.6801     1.2245    -3.3251 H      1 <0>       0.4300
27 H27      -1.2386    -4.4614    -1.6775 H      1 <0>       0.1200
28 H28      -1.0782    -6.9113    -1.4901 H      1 <0>       0.1300
29 H29      -2.1158    -8.0706     0.4185 H      1 <0>       0.1300
30 H30      -3.3129    -6.7798     2.1401 H      1 <0>       0.1300
31 H31      -3.4693    -4.3294     1.9551 H      1 <0>       0.1300
@<TRIPOS>BOND
1    1    2 am
2    1   18 1
3    1   19 1
4    2    3 2
5    2    4 1
6    4    5 1
7    5    6 1
8    5   20 1
9    5   21 1
10    6    7 1
11    6   12 1
12    6   22 1
13    7    8 1
14    7   23 1
15    7   24 1
16    8    9 1
17    9   10 am
18    9   11 2
19   10   25 1
20   10   26 1
21   12   17 ar
22   12   13 ar
23   13   14 ar
24   13   27 1
25   14   15 ar
26   14   28 1
27   15   16 ar
28   15   29 1
29   16   17 ar
30   16   30 1
31   17   31 1
