@<TRIPOS>MOLECULE
ZINC000000006310
29    30    1     0     0
SMALL
USER_CHARGES
@<TRIPOS>ATOM
1      N1     -0.0169    1.3925    0.0097 N.pl3    1 ZINC000000006310   -0.8700
2      C2      0.0021   -0.0041    0.0020 C.ar     1 ZINC000000006310    0.2700
3      C3     -1.1905   -0.7164    0.0038 C.ar     1 ZINC000000006310   -0.2200
4      C4     -1.1681   -2.0973   -0.0043 C.ar     1 ZINC000000006310    0.0300
5      C5      0.0396   -2.7708   -0.0137 C.ar     1 ZINC000000006310   -0.7100
6      S6      0.0635   -4.5326   -0.0234 S.o2     1 ZINC000000006310    2.5900
7      O7      1.3211   -4.9198    0.5130 O.2      1 ZINC000000006310   -0.9500
8      O8     -1.1781   -4.9538    0.5246 O.2      1 ZINC000000006310   -0.9500
9      C9      0.0626   -5.0449   -1.7093 C.ar     1 ZINC000000006310   -0.7100
10     C10    -1.1362   -5.2563   -2.3654 C.ar     1 ZINC000000006310    0.0300
11     C11    -1.1405   -5.6574   -3.6869 C.ar     1 ZINC000000006310   -0.2200
12     C12     0.0612   -5.8486   -4.3570 C.ar     1 ZINC000000006310    0.2700
13     N13     0.0605   -6.2539   -5.6937 N.pl3    1 ZINC000000006310   -0.8700
14     C14     1.2636   -5.6354   -3.6949 C.ar     1 ZINC000000006310   -0.2200
15     C15     1.2606   -5.2292   -2.3749 C.ar     1 ZINC000000006310    0.0300
16     C16     1.2286   -2.0647   -0.0159 C.ar     1 ZINC000000006310    0.0300
17     C17     1.2135   -0.6838   -0.0132 C.ar     1 ZINC000000006310   -0.2200
18     H18     0.8165    1.8889    0.0044 H        1 ZINC000000006310    0.4000
19     H19    -0.8634    1.8661    0.0163 H        1 ZINC000000006310    0.4000
20     H20    -2.1340   -0.1911    0.0118 H        1 ZINC000000006310    0.1300
21     H21    -2.0949   -2.6517   -0.0030 H        1 ZINC000000006310    0.1400
22     H22    -2.0701   -5.1078   -1.8438 H        1 ZINC000000006310    0.1400
23     H23    -2.0771   -5.8227   -4.1987 H        1 ZINC000000006310    0.1300
24     H24    -0.7798   -6.4021   -6.1551 H        1 ZINC000000006310    0.4000
25     H25     0.9002   -6.3870   -6.1605 H        1 ZINC000000006310    0.4000
26     H26     2.1996   -5.7835   -4.2128 H        1 ZINC000000006310    0.1300
27     H27     2.1951   -5.0630   -1.8596 H        1 ZINC000000006310    0.1400
28     H28     2.1701   -2.5938   -0.0236 H        1 ZINC000000006310    0.1400
29     H29     2.1424   -0.1329   -0.0153 H        1 ZINC000000006310    0.1300
@<TRIPOS>BOND
1     1     2     1
2     1     18    1
3     1     19    1
4     2     17    ar
5     2     3     ar
6     3     4     ar
7     3     20    1
8     4     5     ar
9     4     21    1
10    5     6     1
11    5     16    ar
12    6     7     2
13    6     8     2
14    6     9     1
15    9     15    ar
16    9     10    ar
17    10    11    ar
18    10    22    1
19    11    12    ar
20    11    23    1
21    12    13    1
22    12    14    ar
23    13    24    1
24    13    25    1
25    14    15    ar
26    14    26    1
27    15    27    1
28    16    17    ar
29    16    28    1
30    17    29    1
@<TRIPOS>SUBSTRUCTURE
1   ZINC000000006310 1     RESIDUE    1   A     ZIN   1
