@<TRIPOS>MOLECULE
ZINC000013537284
41    44    1     0     0
SMALL
USER_CHARGES
@<TRIPOS>ATOM
1      C1     -0.0184    1.5028    0.0103 C.3      1 ZINC000013537284   -0.1100
2      C2      0.0021   -0.0041    0.0020 C.2      1 ZINC000013537284    0.0400
3      C3      0.0078   -0.7894   -1.0919 C.2      1 ZINC000013537284    0.0400
4      C4     -0.0052   -0.3305   -2.5273 C.3      1 ZINC000013537284    0.1700
5      N5      1.3479    0.0654   -2.9257 N.am     1 ZINC000013537284   -0.6200
6      C6      1.7619    1.4482   -2.7272 C.3      1 ZINC000013537284    0.1100
7      C7      3.2147    1.5675   -2.2666 C.3      1 ZINC000013537284   -0.0800
8      C8      4.0755    0.6791   -3.1301 C.2      1 ZINC000013537284    0.1200
9      C9      3.5642   -0.4712   -3.6931 C.2      1 ZINC000013537284   -0.2500
10     C10     4.6365   -1.0804   -4.4527 C.ar     1 ZINC000013537284   -0.0500
11     C11     4.7213   -2.2383   -5.2260 C.ar     1 ZINC000013537284   -0.0700
12     C12     5.9422   -2.5084   -5.8194 C.ar     1 ZINC000013537284   -0.1300
13     C13     7.0341   -1.6733   -5.6581 C.ar     1 ZINC000013537284   -0.1000
14     C14     6.9730   -0.5198   -4.8948 C.ar     1 ZINC000013537284   -0.1200
15     C15     5.7559   -0.2241   -4.2868 C.ar     1 ZINC000013537284    0.0800
16     N16     5.3698    0.8176   -3.4838 N.pl3    1 ZINC000013537284   -0.4500
17     C17     6.2379    1.9227   -3.0698 C.3      1 ZINC000013537284    0.0600
18     C18     2.1700   -0.8679   -3.4598 C.2      1 ZINC000013537284    0.6100
19     O19     1.7693   -1.9816   -3.7417 O.2      1 ZINC000013537284   -0.5300
20     N20     0.0283   -2.0846   -0.6496 N.pl3    1 ZINC000013537284   -0.5000
21     C21     0.0343   -2.0456    0.7003 C.cat    1 ZINC000013537284    0.3100
22     N22     0.0236   -0.7980    1.0829 N.pl3    1 ZINC000013537284   -0.4800
23     H23     0.0254   -0.4930    2.0037 H        1 ZINC000013537284    0.4600
24     H24     1.0042    1.8801    0.0026 H        1 ZINC000013537284    0.1000
25     H25    -0.5455    1.8639   -0.8728 H        1 ZINC000013537284    0.1100
26     H26    -0.5286    1.8543    0.9071 H        1 ZINC000013537284    0.1000
27     H27    -0.3484   -1.1445   -3.1659 H        1 ZINC000013537284    0.1200
28     H28    -0.6781    0.5208   -2.6305 H        1 ZINC000013537284    0.1300
29     H29     1.6448    1.9891   -3.6662 H        1 ZINC000013537284    0.0800
30     H30     1.1162    1.9050   -1.9772 H        1 ZINC000013537284    0.1000
31     H31     3.5448    2.6017   -2.3639 H        1 ZINC000013537284    0.1100
32     H32     3.2947    1.2533   -1.2259 H        1 ZINC000013537284    0.0900
33     H33     3.8731   -2.8943   -5.3555 H        1 ZINC000013537284    0.1400
34     H34     6.0459   -3.3963   -6.4254 H        1 ZINC000013537284    0.1300
35     H35     7.9643   -1.9301   -6.1432 H        1 ZINC000013537284    0.1300
36     H36     7.8324    0.1234   -4.7766 H        1 ZINC000013537284    0.1300
37     H37     6.1690    2.7312   -3.7976 H        1 ZINC000013537284    0.0800
38     H38     5.9220    2.2863   -2.0920 H        1 ZINC000013537284    0.0900
39     H39     7.2686    1.5730   -3.0117 H        1 ZINC000013537284    0.0900
40     H40     0.0368   -2.8816   -1.2024 H        1 ZINC000013537284    0.4700
41     H41     0.0496   -2.9046    1.3548 H        1 ZINC000013537284    0.2700
@<TRIPOS>BOND
1     1     2     1
2     1     24    1
3     1     25    1
4     1     26    1
5     2     22    1
6     2     3     2
7     3     4     1
8     3     20    1
9     4     5     1
10    4     27    1
11    4     28    1
12    5     18    am
13    5     6     1
14    6     7     1
15    6     29    1
16    6     30    1
17    7     8     1
18    7     31    1
19    7     32    1
20    8     16    1
21    8     9     2
22    9     10    1
23    9     18    1
24    10    15    ar
25    10    11    ar
26    11    12    ar
27    11    33    1
28    12    13    ar
29    12    34    1
30    13    14    ar
31    13    35    1
32    14    15    ar
33    14    36    1
34    15    16    1
35    16    17    1
36    17    37    1
37    17    38    1
38    17    39    1
39    18    19    2
40    20    21    ar
41    20    40    1
42    21    22    ar
43    21    41    1
44    22    23    1
@<TRIPOS>SUBSTRUCTURE
1   ZINC000013537284 1     RESIDUE    1   A     ZIN   1
