@<TRIPOS>MOLECULE
ZINC000068204830
104   109   1     0     0
SMALL
USER_CHARGES
@<TRIPOS>ATOM
1      C1      2.8148    5.1586   -2.6046 C.3      1 ZINC000068204830    0.0600
2      O2      3.0266    3.8023   -2.1313 O.3      1 ZINC000068204830   -0.3700
3      C3      1.9586    2.9826   -2.1271 C.2      1 ZINC000068204830    0.6500
4      O4      0.8790    3.3894   -2.5085 O.2      1 ZINC000068204830   -0.5600
5      N5      2.0869    1.7108   -1.6998 N.am     1 ZINC000068204830   -0.7000
6      C6      0.9248    0.8188   -1.6952 C.3      1 ZINC000068204830    0.1600
7      H7      0.0291    1.3903   -1.4517 H        1 ZINC000068204830    0.1100
8      C8      1.1258   -0.2628   -0.6653 C.2      1 ZINC000068204830    0.5400
9      O9      2.2335   -0.7168   -0.4710 O.2      1 ZINC000068204830   -0.5200
10     N10     0.0746   -0.7258    0.0398 N.am     1 ZINC000068204830   -0.5900
11     C11    -1.3350   -0.3500   -0.1728 C.3      1 ZINC000068204830    0.0900
12     C12    -2.0258   -0.6158    1.1881 C.3      1 ZINC000068204830   -0.1300
13     C13    -1.2959   -1.9002    1.6623 C.3      1 ZINC000068204830   -0.1200
14     C14     0.1431   -1.6939    1.1441 C.3      1 ZINC000068204830    0.2300
15     H15     0.7707   -1.2956    1.9414 H        1 ZINC000068204830    0.0900
16     C16     0.7050   -3.0044    0.6562 C.2      1 ZINC000068204830    0.2100
17     N17     0.6707   -3.4309   -0.5750 N.2      1 ZINC000068204830   -0.4500
18     C18     1.2668   -4.6391   -0.6423 C.2      1 ZINC000068204830    0.0400
19     C19     1.4364   -5.4642   -1.8626 C.ar     1 ZINC000068204830    0.0000
20     C20     2.0716   -6.7035   -1.7836 C.ar     1 ZINC000068204830   -0.1100
21     C21     2.2288   -7.4702   -2.9169 C.ar     1 ZINC000068204830   -0.1100
22     C22     1.7527   -7.0073   -4.1437 C.ar     1 ZINC000068204830   -0.0500
23     C23     1.9214   -7.8326   -5.3634 C.ar     1 ZINC000068204830   -0.0400
24     C24     2.5511   -9.0748   -5.2834 C.ar     1 ZINC000068204830   -0.1100
25     C25     2.7074   -9.8418   -6.4167 C.ar     1 ZINC000068204830   -0.0900
26     C26     2.2360   -9.3765   -7.6442 C.ar     1 ZINC000068204830    0.0000
27     C27     2.4039  -10.2026   -8.8641 C.2      1 ZINC000068204830    0.0400
28     C28     1.9996   -9.8713  -10.1189 C.2      1 ZINC000068204830   -0.0300
29     N29     2.3515  -10.9119  -10.9321 N.pl3    1 ZINC000068204830   -0.5600
30     C30     2.9555  -11.8424  -10.1605 C.2      1 ZINC000068204830    0.2100
31     C31     3.5059  -13.1585  -10.6462 C.3      1 ZINC000068204830    0.2300
32     H32     3.9081  -13.0432  -11.6527 H        1 ZINC000068204830    0.0900
33     C33     2.3913  -14.2258  -10.6455 C.3      1 ZINC000068204830   -0.1200
34     C34     3.1332  -15.5027  -10.1696 C.3      1 ZINC000068204830   -0.1300
35     C35     4.1417  -14.9151   -9.1512 C.3      1 ZINC000068204830    0.0900
36     N36     4.5621  -13.6251   -9.7361 N.am     1 ZINC000068204830   -0.6000
37     C37     5.7191  -12.9847   -9.4762 C.2      1 ZINC000068204830    0.5500
38     O38     6.0031  -11.9746  -10.0846 O.2      1 ZINC000068204830   -0.5200
39     C39     6.6600  -13.5235   -8.4296 C.3      1 ZINC000068204830    0.1600
40     H40     6.5642  -14.6081   -8.3787 H        1 ZINC000068204830    0.1100
41     N41     8.0373  -13.1710   -8.7831 N.am     1 ZINC000068204830   -0.7000
42     C42     9.0620  -13.9205   -8.3307 C.2      1 ZINC000068204830    0.6500
43     O43     8.8435  -14.8886   -7.6296 O.2      1 ZINC000068204830   -0.5700
44     O44    10.3278  -13.5966   -8.6556 O.3      1 ZINC000068204830   -0.3700
45     C45    11.3811  -14.4484   -8.1330 C.3      1 ZINC000068204830    0.0600
46     C46     6.3113  -12.9163   -7.0692 C.3      1 ZINC000068204830   -0.1000
47     C47     6.4982  -11.3988   -7.1250 C.3      1 ZINC000068204830   -0.1500
48     C48     4.8558  -13.2386   -6.7248 C.3      1 ZINC000068204830   -0.1700
49     N49     2.9906  -11.4154   -8.9295 N.2      1 ZINC000068204830   -0.4500
50     C50     1.6064   -8.1345   -7.7242 C.ar     1 ZINC000068204830   -0.1100
51     C51     1.4453   -7.3697   -6.5902 C.ar     1 ZINC000068204830   -0.1100
52     C52     1.1174   -5.7679   -4.2225 C.ar     1 ZINC000068204830   -0.1100
53     C53     0.9556   -5.0037   -3.0882 C.ar     1 ZINC000068204830   -0.0900
54     C54     1.6843   -4.9638    0.6098 C.2      1 ZINC000068204830   -0.0300
55     N55     1.3306   -3.9240    1.4234 N.pl3    1 ZINC000068204830   -0.5600
56     C56     0.7642    0.1833   -3.0776 C.3      1 ZINC000068204830   -0.1000
57     C57    -0.4777   -0.7103   -3.0870 C.3      1 ZINC000068204830   -0.1600
58     C58     0.6089    1.2833   -4.1297 C.3      1 ZINC000068204830   -0.1400
59     H59     3.7531    5.7111   -2.5560 H        1 ZINC000068204830    0.1000
60     H60     2.4615    5.1326   -3.6354 H        1 ZINC000068204830    0.0600
61     H61     2.0708    5.6501   -1.9778 H        1 ZINC000068204830    0.0600
62     H62     2.9487    1.3861   -1.3953 H        1 ZINC000068204830    0.4200
63     H63    -1.4108    0.7047   -0.4371 H        1 ZINC000068204830    0.0800
64     H64    -1.7796   -0.9699   -0.9513 H        1 ZINC000068204830    0.0800
65     H65    -1.8552    0.2087    1.8804 H        1 ZINC000068204830    0.0800
66     H66    -3.0921   -0.7986    1.0559 H        1 ZINC000068204830    0.0900
67     H67    -1.3100   -1.9726    2.7498 H        1 ZINC000068204830    0.0900
68     H68    -1.7415   -2.7862    1.2100 H        1 ZINC000068204830    0.0900
69     H69     2.4405   -7.0616   -0.8339 H        1 ZINC000068204830    0.1200
70     H70     2.7210   -8.4296   -2.8558 H        1 ZINC000068204830    0.1300
71     H71     2.9164   -9.4349   -4.3330 H        1 ZINC000068204830    0.1300
72     H72     3.1953  -10.8033   -6.3549 H        1 ZINC000068204830    0.1300
73     H73     1.4974   -8.9624  -10.4156 H        1 ZINC000068204830    0.1800
74     H74     2.1958  -10.9717  -11.8876 H        1 ZINC000068204830    0.4200
75     H75     1.5998  -13.9564   -9.9462 H        1 ZINC000068204830    0.0900
76     H76     1.9897  -14.3647  -11.6493 H        1 ZINC000068204830    0.0900
77     H77     2.4462  -16.1956   -9.6838 H        1 ZINC000068204830    0.0900
78     H78     3.6512  -15.9854  -10.9984 H        1 ZINC000068204830    0.0800
79     H79     3.6584  -14.7563   -8.1872 H        1 ZINC000068204830    0.0900
80     H80     5.0000  -15.5780   -9.0415 H        1 ZINC000068204830    0.0800
81     H81     8.2118  -12.3982   -9.3428 H        1 ZINC000068204830    0.4200
82     H82    12.3492  -14.0769   -8.4690 H        1 ZINC000068204830    0.1000
83     H83    11.3474  -14.4411   -7.0435 H        1 ZINC000068204830    0.0600
84     H84    11.2376  -15.4668   -8.4941 H        1 ZINC000068204830    0.0600
85     H85     6.9667  -13.3352   -6.3056 H        1 ZINC000068204830    0.0900
86     H86     5.8428  -10.9799   -7.8886 H        1 ZINC000068204830    0.0700
87     H87     6.2498  -10.9662   -6.1559 H        1 ZINC000068204830    0.0600
88     H88     7.5351  -11.1692   -7.3704 H        1 ZINC000068204830    0.0500
89     H89     4.2058  -12.8806   -7.5232 H        1 ZINC000068204830    0.0900
90     H90     4.7383  -14.3168   -6.6164 H        1 ZINC000068204830    0.0500
91     H91     4.5866  -12.7479   -5.7895 H        1 ZINC000068204830    0.0600
92     H92     1.2417   -7.7742   -8.6748 H        1 ZINC000068204830    0.1200
93     H93     0.9577   -6.4080   -6.6522 H        1 ZINC000068204830    0.1300
94     H94     0.7488   -5.4094   -5.1723 H        1 ZINC000068204830    0.1300
95     H95     0.4637   -4.0441   -3.1492 H        1 ZINC000068204830    0.1300
96     H96     2.1994   -5.8663    0.9040 H        1 ZINC000068204830    0.1800
97     H97     1.4935   -3.8606    2.3775 H        1 ZINC000068204830    0.4200
98     H98     1.6451   -0.4165   -3.3063 H        1 ZINC000068204830    0.0800
99     H99    -1.3665   -0.0988   -2.9314 H        1 ZINC000068204830    0.0600
100    H100   -0.5512   -1.2202   -4.0476 H        1 ZINC000068204830    0.0600
101    H101   -0.4002   -1.4484   -2.2888 H        1 ZINC000068204830    0.0800
102    H102    1.4937    1.9199   -4.1230 H        1 ZINC000068204830    0.0500
103    H103    0.4945    0.8305   -5.1146 H        1 ZINC000068204830    0.0500
104    H104   -0.2720    1.8831   -3.9010 H        1 ZINC000068204830    0.0700
@<TRIPOS>BOND
1     1     2     1
2     1     59    1
3     1     60    1
4     1     61    1
5     2     3     1
6     3     4     2
7     3     5     am
8     5     6     1
9     5     62    1
10    6     7     1
11    6     8     1
12    6     56    1
13    8     9     2
14    8     10    am
15    10    14    1
16    10    11    1
17    11    12    1
18    11    63    1
19    11    64    1
20    12    13    1
21    12    65    1
22    12    66    1
23    13    14    1
24    13    67    1
25    13    68    1
26    14    15    1
27    14    16    1
28    16    55    1
29    16    17    2
30    17    18    1
31    18    19    1
32    18    54    2
33    19    53    ar
34    19    20    ar
35    20    21    ar
36    20    69    1
37    21    22    ar
38    21    70    1
39    22    23    1
40    22    52    ar
41    23    51    ar
42    23    24    ar
43    24    25    ar
44    24    71    1
45    25    26    ar
46    25    72    1
47    26    27    1
48    26    50    ar
49    27    49    1
50    27    28    2
51    28    29    1
52    28    73    1
53    29    30    1
54    29    74    1
55    30    31    1
56    30    49    2
57    31    32    1
58    31    36    1
59    31    33    1
60    33    34    1
61    33    75    1
62    33    76    1
63    34    35    1
64    34    77    1
65    34    78    1
66    35    36    1
67    35    79    1
68    35    80    1
69    36    37    am
70    37    38    2
71    37    39    1
72    39    40    1
73    39    41    1
74    39    46    1
75    41    42    am
76    41    81    1
77    42    43    2
78    42    44    1
79    44    45    1
80    45    82    1
81    45    83    1
82    45    84    1
83    46    47    1
84    46    48    1
85    46    85    1
86    47    86    1
87    47    87    1
88    47    88    1
89    48    89    1
90    48    90    1
91    48    91    1
92    50    51    ar
93    50    92    1
94    51    93    1
95    52    53    ar
96    52    94    1
97    53    95    1
98    54    55    1
99    54    96    1
100   55    97    1
101   56    57    1
102   56    58    1
103   56    98    1
104   57    99    1
105   57    100   1
106   57    101   1
107   58    102   1
108   58    103   1
109   58    104   1
@<TRIPOS>SUBSTRUCTURE
1   ZINC000068204830 1     RESIDUE    1   A     ZIN   1
