@<TRIPOS>MOLECULE
ZINC000085537017
66    68    1     0     0
SMALL
USER_CHARGES
@<TRIPOS>ATOM
1      C1     -0.0225    1.8097    0.0120 C.3      1 ZINC000085537017   -0.1200
2      S2      0.0021   -0.0041    0.0020 S.3      1 ZINC000085537017   -0.2400
3      C3     -1.7597   -0.4361    0.0165 C.3      1 ZINC000085537017   -0.1100
4      C4     -1.9115   -1.9586    0.0098 C.3      1 ZINC000085537017    0.1500
5      N5     -3.3342   -2.3075    0.0215 N.pl3    1 ZINC000085537017   -0.7000
6      C6     -3.7208   -3.6361    0.0181 C.ar     1 ZINC000085537017    0.5200
7      C7     -5.0818   -3.9878    0.0233 C.ar     1 ZINC000085537017   -0.1000
8      N8     -6.2443   -3.2902    0.0322 N.2      1 ZINC000085537017   -0.4700
9      C9     -7.2468   -4.1193    0.0341 C.2      1 ZINC000085537017    0.2900
10     N10    -6.7884   -5.4045    0.0265 N.pl3    1 ZINC000085537017   -0.4600
11     C11    -7.6094   -6.6178    0.0254 C.3      1 ZINC000085537017    0.3100
12     H12    -7.1406   -7.3965   -0.5761 H        1 ZINC000085537017    0.1200
13     O13    -8.9388   -6.3316   -0.4599 O.3      1 ZINC000085537017   -0.3400
14     C14    -9.7977   -7.3755    0.0289 C.3      1 ZINC000085537017    0.0900
15     H15    -9.8706   -8.1724   -0.7111 H        1 ZINC000085537017    0.1100
16     C16   -11.1886   -6.8098    0.3228 C.3      1 ZINC000085537017    0.1400
17     O17   -11.8048   -6.4014   -0.9001 O.3      1 ZINC000085537017   -0.7600
18     P18   -13.2791   -5.7577   -0.9668 P.3      1 ZINC000085537017    2.2900
19     O19   -14.2877   -6.7090   -0.2852 O.co2    1 ZINC000085537017   -1.1000
20     O20   -13.2802   -4.3965   -0.2361 O.co2    1 ZINC000085537017   -1.1000
21     O21   -13.7010   -5.5412   -2.5054 O.3      1 ZINC000085537017   -1.0900
22     P22   -15.0965   -5.2444   -3.2513 P.3      1 ZINC000085537017    2.3200
23     O23   -15.6876   -3.9161   -2.7285 O.co2    1 ZINC000085537017   -1.0500
24     O24   -16.0870   -6.3957   -2.9678 O.co2    1 ZINC000085537017   -1.0400
25     C25   -14.8107   -5.1171   -5.0472 C.3      1 ZINC000085537017   -1.0000
26     Cl26  -13.6548   -3.7735   -5.3781 Cl       1 ZINC000085537017   -0.1600
27     Cl27  -14.1209   -6.6672   -5.6574 Cl       1 ZINC000085537017   -0.1600
28     P28   -16.3909   -4.7810   -5.8918 P.3      1 ZINC000085537017    2.2300
29     O29   -16.9819   -3.4527   -5.3689 O.2      1 ZINC000085537017   -1.0400
30     O30   -17.3814   -5.9324   -5.6083 O.3      1 ZINC000085537017   -1.0500
31     O31   -16.1384   -4.6686   -7.4779 O.3      1 ZINC000085537017   -0.9000
32     C32    -9.1655   -7.9198    1.3245 C.3      1 ZINC000085537017    0.0500
33     H33    -9.8228   -7.7390    2.1750 H        1 ZINC000085537017    0.1000
34     O34    -8.8870   -9.3156    1.1971 O.3      1 ZINC000085537017   -0.5400
35     C35    -7.8486   -7.1162    1.4734 C.3      1 ZINC000085537017    0.0400
36     H36    -7.9808   -6.2756    2.1545 H        1 ZINC000085537017    0.0900
37     O37    -6.7823   -7.9610    1.9109 O.3      1 ZINC000085537017   -0.5300
38     C38    -5.4174   -5.3519    0.0195 C.ar     1 ZINC000085537017    0.3200
39     N39    -4.4453   -6.2581    0.0108 N.ar     1 ZINC000085537017   -0.5100
40     C40    -3.1755   -5.8836    0.0057 C.ar     1 ZINC000085537017    0.3500
41     S41    -1.9229   -7.1227   -0.0065 S.3      1 ZINC000085537017    0.0300
42     C42    -0.4459   -6.0765   -0.0097 C.3      1 ZINC000085537017   -0.1200
43     C43     0.8040   -6.9588   -0.0203 C.3      1 ZINC000085537017   -0.1600
44     C44     2.0525   -6.0744   -0.0231 C.3      1 ZINC000085537017    0.4600
45     F45     2.0580   -5.2717    1.1228 F        1 ZINC000085537017   -0.1800
46     F46     3.1954   -6.8811   -0.0327 F        1 ZINC000085537017   -0.1800
47     F47     2.0458   -5.2616   -1.1617 F        1 ZINC000085537017   -0.1800
48     N48    -2.8139   -4.6063    0.0042 N.ar     1 ZINC000085537017   -0.5900
49     H49     1.0001    2.1870    0.0043 H        1 ZINC000085537017    0.1000
50     H50    -0.5497    2.1708   -0.8711 H        1 ZINC000085537017    0.0800
51     H51    -0.5327    2.1613    0.9088 H        1 ZINC000085537017    0.0800
52     H52    -2.2264   -0.0284    0.9132 H        1 ZINC000085537017    0.0900
53     H53    -2.2434   -0.0189   -0.8667 H        1 ZINC000085537017    0.0900
54     H54    -1.4447   -2.3663   -0.8869 H        1 ZINC000085537017    0.0800
55     H55    -1.4277   -2.3759    0.8930 H        1 ZINC000085537017    0.0800
56     H56    -4.0053   -1.6072    0.0317 H        1 ZINC000085537017    0.4200
57     H57    -8.2881   -3.8327    0.0410 H        1 ZINC000085537017    0.2400
58     H58   -11.7995   -7.5766    0.7991 H        1 ZINC000085537017    0.0800
59     H59   -11.0985   -5.9515    0.9886 H        1 ZINC000085537017    0.0600
60     H60   -16.9379   -4.4902   -7.9917 H        1 ZINC000085537017    0.4000
61     H61    -8.4878   -9.7105    1.9843 H        1 ZINC000085537017    0.3800
62     H62    -6.9315   -8.3667    2.7759 H        1 ZINC000085537017    0.3800
63     H63    -0.4512   -5.4432   -0.8969 H        1 ZINC000085537017    0.1100
64     H64    -0.4417   -5.4511    0.8830 H        1 ZINC000085537017    0.1100
65     H65     0.8093   -7.5920    0.8668 H        1 ZINC000085537017    0.1200
66     H66     0.7998   -7.5841   -0.9131 H        1 ZINC000085537017    0.1200
@<TRIPOS>BOND
1     1     2     1
2     1     49    1
3     1     50    1
4     1     51    1
5     2     3     1
6     3     4     1
7     3     52    1
8     3     53    1
9     4     5     1
10    4     54    1
11    4     55    1
12    5     6     1
13    5     56    1
14    6     48    ar
15    6     7     ar
16    7     38    ar
17    7     8     1
18    8     9     2
19    9     10    1
20    9     57    1
21    10    11    1
22    10    38    1
23    11    12    1
24    11    35    1
25    11    13    1
26    13    14    1
27    14    15    1
28    14    16    1
29    14    32    1
30    16    17    1
31    16    58    1
32    16    59    1
33    17    18    1
34    18    19    ar
35    18    20    ar
36    18    21    1
37    21    22    1
38    22    23    ar
39    22    24    ar
40    22    25    1
41    25    26    1
42    25    27    1
43    25    28    1
44    28    29    2
45    28    30    1
46    28    31    1
47    31    60    1
48    32    33    1
49    32    34    1
50    32    35    1
51    34    61    1
52    35    36    1
53    35    37    1
54    37    62    1
55    38    39    ar
56    39    40    ar
57    40    41    1
58    40    48    ar
59    41    42    1
60    42    43    1
61    42    63    1
62    42    64    1
63    43    44    1
64    43    65    1
65    43    66    1
66    44    45    1
67    44    46    1
68    44    47    1
@<TRIPOS>SUBSTRUCTURE
1   ZINC000085537017 1     RESIDUE    1   A     ZIN   1
