@<TRIPOS>MOLECULE
ZINC000003929022
65    66    1     0     0
SMALL
USER_CHARGES
@<TRIPOS>ATOM
1      C1      1.7703    0.9045   -0.6419 C.3      1 ZINC000003929022   -0.1500
2      C2      1.4797   -0.5940   -0.5375 C.3      1 ZINC000003929022    0.0900
3      C3      2.1456   -1.1563    0.7200 C.3      1 ZINC000003929022   -0.1800
4      O4      0.0451   -0.8046   -0.4608 O.3      1 ZINC000003929022   -0.3200
5      C5     -0.4315   -1.9548   -0.9705 C.2      1 ZINC000003929022    0.6000
6      O6      0.3298   -2.7609   -1.4658 O.2      1 ZINC000003929022   -0.5300
7      O7     -1.7514   -2.2121   -0.9314 O.3      1 ZINC000003929022   -0.3100
8      C8     -2.1944   -3.4726   -1.4999 C.3      1 ZINC000003929022    0.3000
9      O9     -1.8639   -4.5395   -0.6085 O.3      1 ZINC000003929022   -0.7600
10     P10    -2.2085   -6.0810   -0.9201 P.3      1 ZINC000003929022    2.3500
11     O11    -1.6352   -6.4594   -2.2310 O.2      1 ZINC000003929022   -0.9700
12     C12    -1.4957   -7.1383    0.3828 C.3      1 ZINC000003929022   -0.5200
13     O13    -1.6791   -8.5121    0.0347 O.3      1 ZINC000003929022   -0.3100
14     C14    -3.0126   -8.9878    0.2283 C.3      1 ZINC000003929022    0.0300
15     H15    -3.7201   -8.1959   -0.0175 H        1 ZINC000003929022    0.0800
16     C16    -3.1990   -9.4027    1.6891 C.3      1 ZINC000003929022   -0.1800
17     C17    -3.2608  -10.1936   -0.6801 C.3      1 ZINC000003929022    0.1200
18     N18    -3.2000   -9.7702   -2.0812 N.pl3    1 ZINC000003929022   -0.4800
19     C19    -4.2583   -9.4125   -2.8624 C.2      1 ZINC000003929022    0.2400
20     N20    -3.8436   -9.0929   -4.0538 N.2      1 ZINC000003929022   -0.4600
21     C21    -2.4966   -9.2249   -4.1129 C.ar     1 ZINC000003929022   -0.1000
22     C22    -1.5271   -9.0271   -5.1105 C.ar     1 ZINC000003929022    0.5100
23     N23    -1.8899   -8.5979   -6.3752 N.pl3    1 ZINC000003929022   -0.8200
24     N24    -0.2535   -9.2613   -4.8112 N.ar     1 ZINC000003929022   -0.5900
25     C25     0.1019   -9.6705   -3.6071 C.ar     1 ZINC000003929022    0.3700
26     N26    -0.7712   -9.8695   -2.6421 N.ar     1 ZINC000003929022   -0.5500
27     C27    -2.0668   -9.6554   -2.8461 C.ar     1 ZINC000003929022    0.3300
28     O28    -3.8061   -6.2771   -0.9562 O.3      1 ZINC000003929022   -0.7600
29     C29    -4.6435   -5.6636   -1.9382 C.3      1 ZINC000003929022    0.3000
30     O30    -6.0259   -6.0363   -1.6965 O.3      1 ZINC000003929022   -0.3000
31     C31    -6.6478   -5.4391   -0.6637 C.2      1 ZINC000003929022    0.6000
32     O32    -6.0525   -4.6288    0.0172 O.2      1 ZINC000003929022   -0.5400
33     O33    -7.9292   -5.7396   -0.3854 O.3      1 ZINC000003929022   -0.3200
34     C34    -8.5362   -5.0569    0.7432 C.3      1 ZINC000003929022    0.0900
35     C35   -10.0381   -4.9003    0.4969 C.3      1 ZINC000003929022   -0.1500
36     C36    -8.3108   -5.8757    2.0159 C.3      1 ZINC000003929022   -0.1700
37     H37     2.8472    1.0626   -0.6994 H        1 ZINC000003929022    0.0900
38     H38     1.2959    1.3051   -1.5377 H        1 ZINC000003929022    0.0700
39     H39     1.3748    1.4134    0.2372 H        1 ZINC000003929022    0.0700
40     H40     1.8752   -1.1029   -1.4165 H        1 ZINC000003929022    0.1000
41     H41     1.7501   -0.6474    1.5990 H        1 ZINC000003929022    0.0700
42     H42     1.9386   -2.2238    0.7944 H        1 ZINC000003929022    0.0600
43     H43     3.2225   -0.9982    0.6624 H        1 ZINC000003929022    0.0800
44     H44    -3.2739   -3.4446   -1.6485 H        1 ZINC000003929022    0.1200
45     H45    -1.6998   -3.6329   -2.4578 H        1 ZINC000003929022    0.1100
46     H46    -0.4308   -6.9271    0.4800 H        1 ZINC000003929022    0.1400
47     H47    -1.9947   -6.9338    1.3301 H        1 ZINC000003929022    0.0800
48     H48    -2.5203  -10.2229    1.9233 H        1 ZINC000003929022    0.0800
49     H49    -2.9816   -8.5546    2.3384 H        1 ZINC000003929022    0.0600
50     H50    -4.2279   -9.7264    1.8465 H        1 ZINC000003929022    0.0800
51     H51    -2.4984  -10.9504   -0.4957 H        1 ZINC000003929022    0.1100
52     H52    -4.2455  -10.6109   -0.4690 H        1 ZINC000003929022    0.1200
53     H53    -5.2891   -9.3971   -2.5403 H        1 ZINC000003929022    0.2200
54     H54    -2.8227   -8.4301   -6.5814 H        1 ZINC000003929022    0.4200
55     H55    -1.2113   -8.4650   -7.0554 H        1 ZINC000003929022    0.4100
56     H56     1.1480   -9.8490   -3.4065 H        1 ZINC000003929022    0.2000
57     H57    -4.5430   -4.5800   -1.8757 H        1 ZINC000003929022    0.0800
58     H58    -4.3450   -5.9995   -2.9313 H        1 ZINC000003929022    0.1500
59     H59    -8.0825   -4.0727    0.8593 H        1 ZINC000003929022    0.0900
60     H60   -10.4918   -5.8846    0.3808 H        1 ZINC000003929022    0.0700
61     H61   -10.4938   -4.3878    1.3441 H        1 ZINC000003929022    0.0900
62     H62   -10.1987   -4.3170   -0.4098 H        1 ZINC000003929022    0.0700
63     H63    -8.7665   -5.3633    2.8631 H        1 ZINC000003929022    0.0800
64     H64    -8.7645   -6.8600    1.8998 H        1 ZINC000003929022    0.0700
65     H65    -7.2408   -5.9873    2.1914 H        1 ZINC000003929022    0.0600
@<TRIPOS>BOND
1     1     2     1
2     1     37    1
3     1     38    1
4     1     39    1
5     2     3     1
6     2     4     1
7     2     40    1
8     3     41    1
9     3     42    1
10    3     43    1
11    4     5     1
12    5     6     2
13    5     7     1
14    7     8     1
15    8     9     1
16    8     44    1
17    8     45    1
18    9     10    1
19    10    11    2
20    10    12    1
21    10    28    1
22    12    13    1
23    12    46    1
24    12    47    1
25    13    14    1
26    14    15    1
27    14    16    1
28    14    17    1
29    16    48    1
30    16    49    1
31    16    50    1
32    17    18    1
33    17    51    1
34    17    52    1
35    18    27    1
36    18    19    1
37    19    20    2
38    19    53    1
39    20    21    1
40    21    27    ar
41    21    22    ar
42    22    23    1
43    22    24    ar
44    23    54    1
45    23    55    1
46    24    25    ar
47    25    26    ar
48    25    56    1
49    26    27    ar
50    28    29    1
51    29    30    1
52    29    57    1
53    29    58    1
54    30    31    1
55    31    32    2
56    31    33    1
57    33    34    1
58    34    35    1
59    34    36    1
60    34    59    1
61    35    60    1
62    35    61    1
63    35    62    1
64    36    63    1
65    36    64    1
66    36    65    1
@<TRIPOS>SUBSTRUCTURE
1   ZINC000003929022 1     RESIDUE    1   A     ZIN   1
