@<TRIPOS>MOLECULE
ZINC000003776970
46    48    1     0     0
SMALL
USER_CHARGES
@<TRIPOS>ATOM
1      C1     -0.0247    1.5030    0.0059 C.3      1 ZINC000003776970   -0.1200
2      C2     -0.0056   -0.0039   -0.0029 C.2      1 ZINC000003776970   -0.1900
3      C3      0.5822   -0.6583   -1.0076 C.2      1 ZINC000003776970   -0.0800
4      C4      0.6007   -2.1195   -1.0161 C.2      1 ZINC000003776970   -0.1800
5      C5      1.1136   -2.7029   -2.1197 C.2      1 ZINC000003776970    0.1500
6      C6      1.5369   -1.8801   -3.2541 C.2      1 ZINC000003776970    0.5300
7      O7      2.7088   -1.5403   -3.3606 O.co2    1 ZINC000003776970   -0.6600
8      O8      0.7192   -1.5316   -4.0967 O.co2    1 ZINC000003776970   -0.6600
9      N9      1.2407   -4.0951   -2.1781 N.am     1 ZINC000003776970   -0.5400
10     C10     1.9342   -5.0679   -2.7565 C.2      1 ZINC000003776970    0.5200
11     O11     2.6059   -5.0992   -3.7660 O.2      1 ZINC000003776970   -0.4600
12     C12     1.6010   -6.1230   -1.7278 C.3      1 ZINC000003776970    0.1300
13     H13     1.1929   -7.0444   -2.1432 H        1 ZINC000003776970    0.1600
14     N14     2.6496   -6.3482   -0.7298 N.am     1 ZINC000003776970   -0.6700
15     C15     3.4266   -7.4469   -0.8049 C.2      1 ZINC000003776970    0.5100
16     O16     3.2578   -8.2491   -1.6987 O.2      1 ZINC000003776970   -0.5100
17     C17     4.5052   -7.6786    0.2218 C.3      1 ZINC000003776970    0.0700
18     H18     4.9966   -6.7333    0.4522 H        1 ZINC000003776970    0.1700
19     N19     5.4927   -8.6268   -0.3109 N.4      1 ZINC000003776970   -0.6200
20     H20     5.0378   -9.5018   -0.5242 H        1 ZINC000003776970    0.4400
21     H21     5.9037   -8.2479   -1.1509 H        1 ZINC000003776970    0.4500
22     H22     6.2149   -8.7819    0.3765 H        1 ZINC000003776970    0.4400
23     C23     3.8913   -8.2445    1.4764 C.ar     1 ZINC000003776970   -0.1600
24     C24     3.5876   -9.5914    1.5492 C.ar     1 ZINC000003776970   -0.0900
25     C25     3.0248  -10.1126    2.6981 C.ar     1 ZINC000003776970   -0.1400
26     C26     2.7649   -9.2834    3.7796 C.ar     1 ZINC000003776970    0.1500
27     O27     2.2118   -9.7938    4.9111 O.3      1 ZINC000003776970   -0.4900
28     C28     3.0711   -7.9324    3.7042 C.ar     1 ZINC000003776970   -0.1300
29     C29     3.6382   -7.4170    2.5547 C.ar     1 ZINC000003776970   -0.0600
30     C30     0.5548   -5.1005   -1.3206 C.3      1 ZINC000003776970    0.1100
31     H31    -0.4613   -5.3464   -1.6292 H        1 ZINC000003776970    0.1500
32     S32     0.6725   -4.5029    0.3986 S.3      1 ZINC000003776970   -0.2500
33     C33     0.0552   -2.7936    0.2003 C.3      1 ZINC000003776970   -0.0100
34     H34     0.9982    1.8793    0.0093 H        1 ZINC000003776970    0.0600
35     H35    -0.5420    1.8650   -0.8826 H        1 ZINC000003776970    0.0600
36     H36    -0.5442    1.8545    0.8973 H        1 ZINC000003776970    0.0600
37     H37    -0.4674   -0.5545    0.8033 H        1 ZINC000003776970    0.1100
38     H38     1.0440   -0.1077   -1.8138 H        1 ZINC000003776970    0.1200
39     H39     2.7846   -5.7066   -0.0149 H        1 ZINC000003776970    0.4200
40     H40     3.7901  -10.2365    0.7070 H        1 ZINC000003776970    0.1300
41     H41     2.7871  -11.1646    2.7543 H        1 ZINC000003776970    0.1400
42     H42     2.8584  -10.1062    5.5587 H        1 ZINC000003776970    0.4000
43     H43     2.8694   -7.2848    4.5446 H        1 ZINC000003776970    0.1500
44     H44     3.8770   -6.3654    2.4957 H        1 ZINC000003776970    0.1400
45     H45     0.3187   -2.2172    1.0871 H        1 ZINC000003776970    0.1200
46     H46    -1.0305   -2.8183    0.1062 H        1 ZINC000003776970    0.1000
@<TRIPOS>BOND
1     1     2     1
2     1     34    1
3     1     35    1
4     1     36    1
5     2     3     2
6     2     37    1
7     3     4     1
8     3     38    1
9     4     33    1
10    4     5     2
11    5     6     1
12    5     9     1
13    6     7     ar
14    6     8     ar
15    9     30    1
16    9     10    am
17    10    11    2
18    10    12    1
19    12    13    1
20    12    14    1
21    12    30    1
22    14    15    am
23    14    39    1
24    15    16    2
25    15    17    1
26    17    18    1
27    17    19    1
28    17    23    1
29    19    20    1
30    19    21    1
31    19    22    1
32    23    29    ar
33    23    24    ar
34    24    25    ar
35    24    40    1
36    25    26    ar
37    25    41    1
38    26    27    1
39    26    28    ar
40    27    42    1
41    28    29    ar
42    28    43    1
43    29    44    1
44    30    31    1
45    30    32    1
46    32    33    1
47    33    45    1
48    33    46    1
@<TRIPOS>SUBSTRUCTURE
1   ZINC000003776970 1     RESIDUE    1   A     ZIN   1
