@<TRIPOS>MOLECULE
ZINC000003812984
43    46    1     0     0
SMALL
USER_CHARGES
@<TRIPOS>ATOM
1      C1     -0.0178    1.4648    0.0101 C.3      1 ZINC000003812984   -0.0500
2      N2      0.0021   -0.0041    0.0020 N.4      1 ZINC000003812984   -0.3700
3      H3     -0.9434   -0.3448    0.0924 H        1 ZINC000003812984    0.4300
4      C4      0.5539   -0.4653   -1.2741 C.3      1 ZINC000003812984   -0.0200
5      C5      0.5918   -1.9983   -1.2977 C.3      1 ZINC000003812984   -0.1300
6      C6      1.4988   -2.4573   -0.1473 C.3      1 ZINC000003812984   -0.0200
7      C7      1.6467   -3.9734   -0.1613 C.3      1 ZINC000003812984   -0.1100
8      C8      2.5294   -4.4132    1.0097 C.3      1 ZINC000003812984   -0.1200
9      C9      1.8909   -3.9638    2.3254 C.3      1 ZINC000003812984   -0.1200
10     C10     1.7562   -2.4397    2.3358 C.3      1 ZINC000003812984   -0.1100
11     C11     0.8685   -1.9987    1.1703 C.3      1 ZINC000003812984   -0.0900
12     H12    -0.1259   -2.4323    1.2766 H        1 ZINC000003812984    0.1000
13     C13     0.7839   -0.4725    1.1373 C.3      1 ZINC000003812984    0.0300
14     H14     0.2582   -0.1518    2.0366 H        1 ZINC000003812984    0.1300
15     C15     2.1774    0.1273    1.1806 C.3      1 ZINC000003812984   -0.0900
16     C16     3.1402   -0.5947    0.2774 C.ar     1 ZINC000003812984   -0.1100
17     C17     4.3799   -0.0075    0.0530 C.ar     1 ZINC000003812984   -0.0900
18     C18     5.3140   -0.6250   -0.7512 C.ar     1 ZINC000003812984   -0.1400
19     C19     5.0181   -1.8441   -1.3432 C.ar     1 ZINC000003812984    0.1200
20     O20     5.9363   -2.4626   -2.1315 O.3      1 ZINC000003812984   -0.5000
21     C21     3.7803   -2.4274   -1.1252 C.ar     1 ZINC000003812984   -0.1400
22     C22     2.8426   -1.7958   -0.3207 C.ar     1 ZINC000003812984   -0.0500
23     H23     0.9830    1.8429   -0.1983 H        1 ZINC000003812984    0.1200
24     H24    -0.7079    1.8230   -0.7538 H        1 ZINC000003812984    0.1300
25     H25    -0.3434    1.8184    0.9884 H        1 ZINC000003812984    0.1300
26     H26    -0.0718   -0.1054   -2.0909 H        1 ZINC000003812984    0.1300
27     H27     1.5648   -0.0757   -1.3940 H        1 ZINC000003812984    0.1300
28     H28    -0.4135   -2.3954   -1.1571 H        1 ZINC000003812984    0.1000
29     H29     0.9971   -2.3438   -2.2488 H        1 ZINC000003812984    0.1100
30     H30     0.6637   -4.4349   -0.0683 H        1 ZINC000003812984    0.0800
31     H31     2.1064   -4.2847   -1.0993 H        1 ZINC000003812984    0.0800
32     H32     2.6255   -5.4990    1.0047 H        1 ZINC000003812984    0.0700
33     H33     3.5160   -3.9605    0.9113 H        1 ZINC000003812984    0.0700
34     H34     0.9039   -4.4160    2.4230 H        1 ZINC000003812984    0.0700
35     H35     2.5181   -4.2785    3.1594 H        1 ZINC000003812984    0.0700
36     H36     1.3063   -2.1211    3.2761 H        1 ZINC000003812984    0.0700
37     H37     2.7425   -1.9870    2.2330 H        1 ZINC000003812984    0.0800
38     H38     2.1218    1.1720    0.8745 H        1 ZINC000003812984    0.1000
39     H39     2.5503    0.0805    2.2038 H        1 ZINC000003812984    0.1200
40     H40     4.6137    0.9411    0.5132 H        1 ZINC000003812984    0.1300
41     H41     6.2744   -0.1607   -0.9197 H        1 ZINC000003812984    0.1400
42     H42     6.5246   -3.0628   -1.6534 H        1 ZINC000003812984    0.4000
43     H43     3.5454   -3.3765   -1.5838 H        1 ZINC000003812984    0.1400
@<TRIPOS>BOND
1     1     2     1
2     1     23    1
3     1     24    1
4     1     25    1
5     2     3     1
6     2     13    1
7     2     4     1
8     4     5     1
9     4     26    1
10    4     27    1
11    5     6     1
12    5     28    1
13    5     29    1
14    6     11    1
15    6     22    1
16    6     7     1
17    7     8     1
18    7     30    1
19    7     31    1
20    8     9     1
21    8     32    1
22    8     33    1
23    9     10    1
24    9     34    1
25    9     35    1
26    10    11    1
27    10    36    1
28    10    37    1
29    11    12    1
30    11    13    1
31    13    14    1
32    13    15    1
33    15    16    1
34    15    38    1
35    15    39    1
36    16    22    ar
37    16    17    ar
38    17    18    ar
39    17    40    1
40    18    19    ar
41    18    41    1
42    19    20    1
43    19    21    ar
44    20    42    1
45    21    22    ar
46    21    43    1
@<TRIPOS>SUBSTRUCTURE
1   ZINC000003812984 1     RESIDUE    1   A     ZIN   1
