@<TRIPOS>MOLECULE
ZINC000000001408
34   35    0    0    0
SMALL
USER_CHARGES
NO_NAME
@<TRIPOS>ATOM
1 C1       -0.0187     1.5258     0.0104 C.3    1 <0>      -0.1500
2 C2        0.0021    -0.0041     0.0020 C.3    1 <0>       0.0600
3 O3        0.7043    -0.4851     1.1784 O.3    1 <0>      -0.3600
4 C4        0.8123    -1.8217     1.3232 C.2    1 <0>       0.5500
5 O5        0.3322    -2.5644     0.4885 O.2    1 <0>      -0.4900
6 C6        1.5083    -2.3790     2.4867 C.2    1 <0>      -0.0800
7 C7        1.7040    -3.7027     2.7690 C.2    1 <0>       0.0900
8 N8        2.3792    -3.7787     3.9156 N.2    1 <0>      -0.4900
9 C9        2.6176    -2.5739     4.3680 C.2    1 <0>       0.2200
10 N10       2.1028    -1.6715     3.5143 N.pl3  1 <0>      -0.4300
11 C11       2.1538    -0.2139     3.6525 C.3    1 <0>       0.1600
12 H12       1.6511     0.2494     2.8035 H      1 <0>       0.1300
13 C13       3.6132     0.2438     3.6928 C.3    1 <0>      -0.1600
14 C14       1.4639     0.1942     4.9286 C.ar   1 <0>      -0.1100
15 C15       1.9303    -0.2685     6.1449 C.ar   1 <0>      -0.1100
16 C16       1.2974     0.1058     7.3155 C.ar   1 <0>      -0.1200
17 C17       0.1984     0.9431     7.2698 C.ar   1 <0>      -0.1100
18 C18      -0.2674     1.4065     6.0536 C.ar   1 <0>      -0.1200
19 C19       0.3681     1.0356     4.8833 C.ar   1 <0>      -0.1000
20 H20       1.0039     1.9031     0.0027 H      1 <0>       0.0700
21 H21      -0.5459     1.8868    -0.8726 H      1 <0>       0.0800
22 H22      -0.5289     1.8773     0.9072 H      1 <0>       0.0700
23 H23      -1.0205    -0.3814     0.0098 H      1 <0>       0.0700
24 H24       0.5123    -0.3556    -0.8948 H      1 <0>       0.0700
25 H25       1.3708    -4.5373     2.1700 H      1 <0>       0.1900
26 H26       3.1473    -2.3414     5.2800 H      1 <0>       0.2100
27 H27       4.1122    -0.0514     2.7698 H      1 <0>       0.0700
28 H28       3.6512     1.3282     3.7957 H      1 <0>       0.0900
29 H29       4.1159    -0.2195     4.5418 H      1 <0>       0.0700
30 H30       2.7889    -0.9226     6.1806 H      1 <0>       0.1200
31 H31       1.6614    -0.2562     8.2657 H      1 <0>       0.1300
32 H32      -0.2964     1.2350     8.1843 H      1 <0>       0.1300
33 H33      -1.1262     2.0603     6.0179 H      1 <0>       0.1300
34 H34       0.0041     1.3976     3.9331 H      1 <0>       0.1300
@<TRIPOS>BOND
1    1    2 1
2    1   20 1
3    1   21 1
4    1   22 1
5    2    3 1
6    2   23 1
7    2   24 1
8    3    4 1
9    4    5 2
10    4    6 1
11    6   10 1
12    6    7 2
13    7    8 1
14    7   25 1
15    8    9 2
16    9   10 1
17    9   26 1
18   10   11 1
19   11   12 1
20   11   13 1
21   11   14 1
22   13   27 1
23   13   28 1
24   13   29 1
25   14   19 ar
26   14   15 ar
27   15   16 ar
28   15   30 1
29   16   17 ar
30   16   31 1
31   17   18 ar
32   17   32 1
33   18   19 ar
34   18   33 1
35   19   34 1
