@<TRIPOS>MOLECULE
ZINC000003938744
73    76    1     0     0
SMALL
USER_CHARGES
@<TRIPOS>ATOM
1      C1      4.7305    1.3242   -1.8078 C.3      1 ZINC000003938744   -0.1400
2      C2      3.8452    0.1248   -1.4635 C.3      1 ZINC000003938744   -0.1200
3      C3      4.3643   -0.5408   -0.2151 C.2      1 ZINC000003938744    0.4600
4      O4      5.3419   -0.1009    0.3422 O.2      1 ZINC000003938744   -0.5100
5      O5      3.7404   -1.6223    0.2779 O.3      1 ZINC000003938744   -0.3400
6      C6      4.2958   -2.2113    1.4832 C.3      1 ZINC000003938744    0.0100
7      C7      3.4699   -3.4062    1.8849 C.2      1 ZINC000003938744    0.3600
8      O8      2.4831   -3.6980    1.2531 O.2      1 ZINC000003938744   -0.4000
9      C9      3.8757   -4.2369    3.0750 C.3      1 ZINC000003938744    0.1000
10     O10     5.0572   -3.6724    3.7023 O.3      1 ZINC000003938744   -0.3400
11     C11     4.9265   -2.4637    4.2714 C.2      1 ZINC000003938744    0.4500
12     O12     3.8552   -1.9049    4.2634 O.2      1 ZINC000003938744   -0.4900
13     C13     6.1158   -1.8037    4.9201 C.3      1 ZINC000003938744   -0.1200
14     C14     5.6988   -0.4452    5.4872 C.3      1 ZINC000003938744   -0.1400
15     C15     2.7119   -4.3190    4.0940 C.3      1 ZINC000003938744   -0.0900
16     H16     3.0134   -3.8752    5.0428 H        1 ZINC000003938744    0.0900
17     C17     1.4806   -3.5960    3.5444 C.3      1 ZINC000003938744   -0.1600
18     C18     2.4033   -5.8290    4.2860 C.3      1 ZINC000003938744   -0.1100
19     C19     3.7242   -6.5014    3.8963 C.3      1 ZINC000003938744   -0.0900
20     H20     4.4590   -6.3842    4.6928 H        1 ZINC000003938744    0.0900
21     C21     3.6264   -7.9577    3.4792 C.3      1 ZINC000003938744   -0.0800
22     H22     2.9431   -8.0534    2.6354 H        1 ZINC000003938744    0.1200
23     C23     3.1207   -8.8011    4.6509 C.3      1 ZINC000003938744   -0.1200
24     C24     2.9882  -10.2637    4.2147 C.3      1 ZINC000003938744   -0.0900
25     C25     4.3284  -10.7147    3.6648 C.2      1 ZINC000003938744   -0.0300
26     C26     4.8734  -11.8284    4.1342 C.2      1 ZINC000003938744   -0.2200
27     C27     6.1813  -12.2866    3.6407 C.2      1 ZINC000003938744    0.4100
28     O28     6.6667  -13.3287    4.0396 O.2      1 ZINC000003938744   -0.4600
29     C29     6.8898  -11.4555    2.6526 C.2      1 ZINC000003938744   -0.2100
30     C30     6.3234  -10.3509    2.1929 C.2      1 ZINC000003938744   -0.0700
31     C31     4.9742   -9.8712    2.6057 C.3      1 ZINC000003938744   -0.0100
32     C32     4.0702   -9.8977    1.3716 C.3      1 ZINC000003938744   -0.1400
33     C33     5.0342   -8.4108    3.0607 C.3      1 ZINC000003938744    0.0600
34     Cl34    6.1250   -8.2793    4.4902 Cl       1 ZINC000003938744   -0.1500
35     C35     5.6078   -7.5548    1.9352 C.3      1 ZINC000003938744    0.1100
36     H36     6.6391   -7.8552    1.7503 H        1 ZINC000003938744    0.0800
37     O37     4.8402   -7.7690    0.7491 O.3      1 ZINC000003938744   -0.5400
38     C38     5.5767   -6.0591    2.2875 C.3      1 ZINC000003938744   -0.1300
39     C39     4.1408   -5.6771    2.6485 C.3      1 ZINC000003938744   -0.0400
40     C40     3.1973   -6.0739    1.5113 C.3      1 ZINC000003938744   -0.1700
41     H41     5.7528    0.9851   -1.9750 H        1 ZINC000003938744    0.0600
42     H42     4.3550    1.8056   -2.7108 H        1 ZINC000003938744    0.0700
43     H43     4.7143    2.0364   -0.9828 H        1 ZINC000003938744    0.0600
44     H44     2.8229    0.4639   -1.2963 H        1 ZINC000003938744    0.1100
45     H45     3.8614   -0.5874   -2.2885 H        1 ZINC000003938744    0.1100
46     H46     5.3221   -2.5260    1.2943 H        1 ZINC000003938744    0.1000
47     H47     4.2836   -1.4747    2.2865 H        1 ZINC000003938744    0.1100
48     H48     6.4870   -2.4358    5.7268 H        1 ZINC000003938744    0.1100
49     H49     6.9020   -1.6619    4.1785 H        1 ZINC000003938744    0.1100
50     H50     4.9126   -0.5869    6.2288 H        1 ZINC000003938744    0.0700
51     H51     6.5591    0.0322    5.9565 H        1 ZINC000003938744    0.0700
52     H52     5.3277    0.1869    4.6805 H        1 ZINC000003938744    0.0600
53     H53     1.1716   -4.0639    2.6097 H        1 ZINC000003938744    0.0800
54     H54     0.6684   -3.6597    4.2685 H        1 ZINC000003938744    0.0600
55     H55     1.7247   -2.5492    3.3634 H        1 ZINC000003938744    0.0600
56     H56     2.1538   -6.0426    5.3254 H        1 ZINC000003938744    0.0800
57     H57     1.5988   -6.1457    3.6222 H        1 ZINC000003938744    0.0800
58     H58     3.8264   -8.7321    5.4787 H        1 ZINC000003938744    0.0800
59     H59     2.1480   -8.4290    4.9725 H        1 ZINC000003938744    0.0800
60     H60     2.7155  -10.8801    5.0714 H        1 ZINC000003938744    0.0800
61     H61     2.2251  -10.3494    3.4410 H        1 ZINC000003938744    0.0900
62     H62     4.3529  -12.4039    4.8854 H        1 ZINC000003938744    0.1400
63     H63     7.8697  -11.7466    2.3040 H        1 ZINC000003938744    0.1400
64     H64     6.8730   -9.7609    1.4744 H        1 ZINC000003938744    0.1300
65     H65     3.6912  -10.9084    1.2205 H        1 ZINC000003938744    0.0500
66     H66     3.2339   -9.2143    1.5191 H        1 ZINC000003938744    0.0800
67     H67     4.6414   -9.5891    0.4961 H        1 ZINC000003938744    0.1000
68     H68     5.1440   -7.2580   -0.0136 H        1 ZINC000003938744    0.3800
69     H69     6.1947   -5.8717    3.1655 H        1 ZINC000003938744    0.0900
70     H70     5.9401   -5.4716    1.4444 H        1 ZINC000003938744    0.0800
71     H71     3.1906   -7.1589    1.4066 H        1 ZINC000003938744    0.1100
72     H72     2.1897   -5.7244    1.7365 H        1 ZINC000003938744    0.0700
73     H73     3.5394   -5.6212    0.5807 H        1 ZINC000003938744    0.0500
@<TRIPOS>BOND
1     1     2     1
2     1     41    1
3     1     42    1
4     1     43    1
5     2     3     1
6     2     44    1
7     2     45    1
8     3     4     2
9     3     5     1
10    5     6     1
11    6     7     1
12    6     46    1
13    6     47    1
14    7     8     2
15    7     9     1
16    9     39    1
17    9     10    1
18    9     15    1
19    10    11    1
20    11    12    2
21    11    13    1
22    13    14    1
23    13    48    1
24    13    49    1
25    14    50    1
26    14    51    1
27    14    52    1
28    15    16    1
29    15    17    1
30    15    18    1
31    17    53    1
32    17    54    1
33    17    55    1
34    18    19    1
35    18    56    1
36    18    57    1
37    19    20    1
38    19    39    1
39    19    21    1
40    21    22    1
41    21    33    1
42    21    23    1
43    23    24    1
44    23    58    1
45    23    59    1
46    24    25    1
47    24    60    1
48    24    61    1
49    25    31    1
50    25    26    2
51    26    27    1
52    26    62    1
53    27    28    2
54    27    29    1
55    29    30    2
56    29    63    1
57    30    31    1
58    30    64    1
59    31    32    1
60    31    33    1
61    32    65    1
62    32    66    1
63    32    67    1
64    33    34    1
65    33    35    1
66    35    36    1
67    35    37    1
68    35    38    1
69    37    68    1
70    38    39    1
71    38    69    1
72    38    70    1
73    39    40    1
74    40    71    1
75    40    72    1
76    40    73    1
@<TRIPOS>SUBSTRUCTURE
1   ZINC000003938744 1     RESIDUE    1   A     ZIN   1
