@<TRIPOS>MOLECULE
ZINC000001530968
25    26    1     0     0
SMALL
USER_CHARGES
@<TRIPOS>ATOM
1      O1      0.0021   -0.0041    0.0020 O.3      1 ZINC000001530968   -0.6500
2      C2     -0.0164    1.3552    0.0095 C.ar     1 ZINC000001530968    0.3000
3      C3     -1.2273    2.0337    0.0305 C.ar     1 ZINC000001530968   -0.1800
4      Cl4    -2.7196    1.1469    0.0472 Cl       1 ZINC000001530968   -0.1200
5      C5     -1.2442    3.4160    0.0386 C.ar     1 ZINC000001530968   -0.0500
6      C6     -0.0552    4.1233    0.0257 C.ar     1 ZINC000001530968   -0.1700
7      Cl7    -0.0789    5.8591    0.0364 Cl       1 ZINC000001530968   -0.1200
8      C8      1.1536    3.4483    0.0047 C.ar     1 ZINC000001530968    0.0300
9      Cl9     2.6440    4.3384   -0.0114 Cl       1 ZINC000001530968   -0.0300
10     C10     1.1744    2.0657    0.0019 C.ar     1 ZINC000001530968   -0.1800
11     C11     2.4903    1.3315   -0.0208 C.3      1 ZINC000001530968    0.0200
12     C12     2.9521    1.0842    1.3922 C.ar     1 ZINC000001530968   -0.1800
13     C13     3.7448    2.0215    2.0371 C.ar     1 ZINC000001530968    0.2900
14     O14     4.1062    3.1642    1.3953 O.3      1 ZINC000001530968   -0.6500
15     C15     4.1686    1.7918    3.3389 C.ar     1 ZINC000001530968   -0.1800
16     Cl16    5.1607    2.9637    4.1489 Cl       1 ZINC000001530968   -0.1200
17     C17     3.7998    0.6294    3.9901 C.ar     1 ZINC000001530968   -0.0500
18     C18     3.0092   -0.3048    3.3451 C.ar     1 ZINC000001530968   -0.1700
19     Cl19    2.5473   -1.7637    4.1648 Cl       1 ZINC000001530968   -0.1200
20     C20     2.5808   -0.0749    2.0486 C.ar     1 ZINC000001530968    0.0300
21     Cl21    1.5889   -1.2490    1.2416 Cl       1 ZINC000001530968   -0.0300
22     H22    -2.1861    3.9442    0.0545 H        1 ZINC000001530968    0.1100
23     H23     2.3656    0.3781   -0.5344 H        1 ZINC000001530968    0.0700
24     H24     3.2327    1.9326   -0.5458 H        1 ZINC000001530968    0.0700
25     H25     4.1293    0.4504    5.0029 H        1 ZINC000001530968    0.1100
@<TRIPOS>BOND
1     1     2     1
2     2     10    ar
3     2     3     ar
4     3     4     1
5     3     5     ar
6     5     6     ar
7     5     22    1
8     6     7     1
9     6     8     ar
10    8     9     1
11    8     10    ar
12    10    11    1
13    11    12    1
14    11    23    1
15    11    24    1
16    12    20    ar
17    12    13    ar
18    13    14    1
19    13    15    ar
20    15    16    1
21    15    17    ar
22    17    18    ar
23    17    25    1
24    18    19    1
25    18    20    ar
26    20    21    1
@<TRIPOS>SUBSTRUCTURE
1   ZINC000001530968 1     RESIDUE    1   A     ZIN   1
