@<TRIPOS>MOLECULE
ZINC000022016976
59    59    1     0     0
SMALL
USER_CHARGES
@<TRIPOS>ATOM
1      C1     -2.5334    2.0202   -0.5742 C.3      1 ZINC000022016976   -0.1900
2      C2     -2.1632    0.5623   -0.8541 C.3      1 ZINC000022016976    0.0800
3      H3     -3.0190    0.0475   -1.2907 H        1 ZINC000022016976    0.1300
4      O4     -1.0639    0.5167   -1.7660 O.3      1 ZINC000022016976   -0.5500
5      C5     -1.7686   -0.1241    0.4551 C.3      1 ZINC000022016976   -0.0500
6      N6     -1.4721   -1.5314    0.1971 N.4      1 ZINC000022016976   -0.3700
7      H7     -0.7824   -1.5473   -0.5720 H        1 ZINC000022016976    0.4300
8      C8     -0.8377   -2.1865    1.3384 C.3      1 ZINC000022016976    0.0000
9      C9     -1.5093   -1.8547    2.6628 C.3      1 ZINC000022016976   -0.0200
10     N10    -1.6250   -3.1269    3.4579 N.3      1 ZINC000022016976   -0.4200
11     C11    -0.4957   -3.0550    4.4473 C.3      1 ZINC000022016976   -0.0600
12     C12    -0.3521   -4.3840    5.1432 C.2      1 ZINC000022016976    0.5000
13     O13    -1.1000   -5.3043    4.8599 O.co2    1 ZINC000022016976   -0.6700
14     O14     0.5118   -4.5389    5.9894 O.co2    1 ZINC000022016976   -0.6900
15     C15    -2.8648   -2.9459    4.2916 C.3      1 ZINC000022016976    0.0100
16     C16    -3.5459   -4.3007    4.4132 C.3      1 ZINC000022016976    0.0000
17     N17    -4.9911   -4.2459    4.2190 N.4      1 ZINC000022016976   -0.3600
18     H18    -5.3785   -5.0963    4.6617 H        1 ZINC000022016976    0.4300
19     C19    -5.6109   -3.1096    4.8945 C.3      1 ZINC000022016976   -0.0800
20     C20    -7.1084   -3.1940    4.7481 C.2      1 ZINC000022016976    0.4900
21     O21    -7.6097   -4.1206    4.1344 O.co2    1 ZINC000022016976   -0.6700
22     O22    -7.8187   -2.3356    5.2433 O.co2    1 ZINC000022016976   -0.6500
23     C23    -5.3459   -4.3204    2.8043 C.3      1 ZINC000022016976    0.0000
24     C24    -5.2872   -2.9726    2.1000 C.3      1 ZINC000022016976    0.0000
25     N25    -4.6653   -3.1887    0.7464 N.3      1 ZINC000022016976   -0.4200
26     C26    -5.8273   -3.1678   -0.2069 C.3      1 ZINC000022016976   -0.0600
27     C27    -5.4042   -3.7573   -1.5277 C.2      1 ZINC000022016976    0.5000
28     O28    -4.2874   -4.2297   -1.6547 O.co2    1 ZINC000022016976   -0.6800
29     O29    -6.1787   -3.7619   -2.4693 O.co2    1 ZINC000022016976   -0.6900
30     C30    -3.9203   -1.9137    0.4587 C.3      1 ZINC000022016976    0.0000
31     C31    -2.6362   -2.2770   -0.2720 C.3      1 ZINC000022016976    0.0000
32     H32    -2.8145    2.5092   -1.5069 H        1 ZINC000022016976    0.0800
33     H33    -3.3719    2.0549    0.1214 H        1 ZINC000022016976    0.0800
34     H34    -1.6776    2.5350   -0.1376 H        1 ZINC000022016976    0.0700
35     H35    -0.2910    1.0203   -1.4758 H        1 ZINC000022016976    0.3800
36     H36    -0.8858    0.3632    0.8691 H        1 ZINC000022016976    0.1300
37     H37    -2.5914   -0.0506    1.1662 H        1 ZINC000022016976    0.1300
38     H38    -0.8558   -3.2719    1.1855 H        1 ZINC000022016976    0.1500
39     H39     0.2148   -1.8784    1.3835 H        1 ZINC000022016976    0.1200
40     H40    -0.8876   -1.1715    3.2394 H        1 ZINC000022016976    0.0800
41     H41    -2.5021   -1.4575    2.5372 H        1 ZINC000022016976    0.0800
42     H42     0.4307   -2.8167    3.9246 H        1 ZINC000022016976    0.0700
43     H43    -0.7068   -2.2800    5.1841 H        1 ZINC000022016976    0.0500
44     H44    -2.5406   -2.5988    5.2727 H        1 ZINC000022016976    0.0800
45     H45    -3.4785   -2.2049    3.8102 H        1 ZINC000022016976    0.0700
46     H46    -3.1128   -4.9866    3.6738 H        1 ZINC000022016976    0.1500
47     H47    -3.3361   -4.7187    5.4065 H        1 ZINC000022016976    0.1300
48     H48    -5.3476   -3.1278    5.9520 H        1 ZINC000022016976    0.1200
49     H49    -5.2538   -2.1820    4.4471 H        1 ZINC000022016976    0.1100
50     H50    -4.6646   -5.0180    2.3018 H        1 ZINC000022016976    0.1300
51     H51    -6.3606   -4.7285    2.7124 H        1 ZINC000022016976    0.1500
52     H52    -6.2924   -2.5903    1.9325 H        1 ZINC000022016976    0.0800
53     H53    -4.6844   -2.2535    2.6270 H        1 ZINC000022016976    0.0700
54     H54    -6.6474   -3.7547    0.2069 H        1 ZINC000022016976    0.0800
55     H55    -6.1560   -2.1394   -0.3566 H        1 ZINC000022016976    0.0500
56     H56    -4.5601   -1.3082   -0.1829 H        1 ZINC000022016976    0.0800
57     H57    -3.7454   -1.4196    1.3986 H        1 ZINC000022016976    0.0700
58     H58    -2.7704   -2.0868   -1.3451 H        1 ZINC000022016976    0.1300
59     H59    -2.4468   -3.3508   -0.1537 H        1 ZINC000022016976    0.1600
@<TRIPOS>BOND
1     1     2     1
2     1     32    1
3     1     33    1
4     1     34    1
5     2     3     1
6     2     4     1
7     2     5     1
8     4     35    1
9     5     6     1
10    5     36    1
11    5     37    1
12    6     7     1
13    6     31    1
14    6     8     1
15    8     9     1
16    8     38    1
17    8     39    1
18    9     10    1
19    9     40    1
20    9     41    1
21    10    11    1
22    10    15    1
23    11    12    1
24    11    42    1
25    11    43    1
26    12    13    ar
27    12    14    ar
28    15    16    1
29    15    44    1
30    15    45    1
31    16    17    1
32    16    46    1
33    16    47    1
34    17    18    1
35    17    19    1
36    17    23    1
37    19    20    1
38    19    48    1
39    19    49    1
40    20    21    ar
41    20    22    ar
42    23    24    1
43    23    50    1
44    23    51    1
45    24    25    1
46    24    52    1
47    24    53    1
48    25    26    1
49    25    30    1
50    26    27    1
51    26    54    1
52    26    55    1
53    27    28    ar
54    27    29    ar
55    30    31    1
56    30    56    1
57    30    57    1
58    31    58    1
59    31    59    1
@<TRIPOS>SUBSTRUCTURE
1   ZINC000022016976 1     RESIDUE    1   A     ZIN   1
