@<TRIPOS>MOLECULE
ZINC000005752191
57    60    1     0     0
SMALL
USER_CHARGES
@<TRIPOS>ATOM
1      C1      1.0919    1.1778    1.1411 C.3      1 ZINC000005752191   -0.1600
2      C2      1.0380   -0.3431    0.9829 C.3      1 ZINC000005752191   -0.1100
3      H3      0.0512   -0.7131    1.2610 H        1 ZINC000005752191    0.0900
4      C4      1.3616   -0.7382   -0.4839 C.3      1 ZINC000005752191   -0.1100
5      C5      2.1671   -2.0319   -0.3208 C.3      1 ZINC000005752191   -0.0800
6      H6      1.5056   -2.8616   -0.0712 H        1 ZINC000005752191    0.0900
7      C7      3.0621   -2.4043   -1.4887 C.3      1 ZINC000005752191   -0.1000
8      H8      3.7645   -1.5947   -1.6867 H        1 ZINC000005752191    0.1200
9      C9      2.2107   -2.6650   -2.7329 C.3      1 ZINC000005752191   -0.1400
10     C10     3.1199   -3.0017   -3.9190 C.3      1 ZINC000005752191    0.1300
11     H11     3.7391   -2.1390   -4.1646 H        1 ZINC000005752191    0.1100
12     F12     2.3408   -3.3544   -5.0262 F        1 ZINC000005752191   -0.2000
13     C13     4.0031   -4.1692   -3.5202 C.2      1 ZINC000005752191   -0.0800
14     C14     4.0642   -5.2292   -4.3140 C.2      1 ZINC000005752191   -0.1900
15     C15     4.8933   -6.3888   -3.9506 C.2      1 ZINC000005752191    0.4100
16     O16     4.9826   -7.3475   -4.6947 O.2      1 ZINC000005752191   -0.4500
17     C17     5.6131   -6.3629   -2.6661 C.2      1 ZINC000005752191   -0.2100
18     C18     5.5431   -5.2911   -1.8925 C.2      1 ZINC000005752191   -0.0700
19     C19     4.7721   -4.0631   -2.2365 C.3      1 ZINC000005752191   -0.0300
20     C20     5.7678   -2.9107   -2.3824 C.3      1 ZINC000005752191   -0.1400
21     C21     3.8324   -3.6741   -1.0924 C.3      1 ZINC000005752191    0.1600
22     F22     2.9096   -4.7048   -0.8841 F        1 ZINC000005752191   -0.1900
23     C23     4.6434   -3.4869    0.1862 C.3      1 ZINC000005752191    0.0900
24     H24     5.0820   -4.4428    0.4721 H        1 ZINC000005752191    0.0700
25     O25     5.6923   -2.5482   -0.0604 O.3      1 ZINC000005752191   -0.5400
26     C26     3.7713   -2.9698    1.3413 C.3      1 ZINC000005752191   -0.1300
27     C27     3.0795   -1.6843    0.8860 C.3      1 ZINC000005752191   -0.0400
28     C28     4.1230   -0.6826    0.3873 C.3      1 ZINC000005752191   -0.1700
29     C29     2.1235   -1.0082    1.8654 C.3      1 ZINC000005752191    0.1100
30     O30     1.5631   -1.9742    2.7570 O.3      1 ZINC000005752191   -0.5400
31     C31     2.8433    0.0644    2.6415 C.2      1 ZINC000005752191    0.3300
32     O32     3.4331    0.9406    2.0560 O.2      1 ZINC000005752191   -0.4000
33     C33     2.8272    0.0436    4.1483 C.3      1 ZINC000005752191    0.0200
34     O34     3.5736    1.1550    4.6480 O.3      1 ZINC000005752191   -0.5500
35     H35     2.0210    1.5548    0.7138 H        1 ZINC000005752191    0.0800
36     H36     0.2448    1.6272    0.6228 H        1 ZINC000005752191    0.0600
37     H37     1.0481    1.4347    2.1995 H        1 ZINC000005752191    0.0500
38     H38     0.4453   -0.9225   -1.0448 H        1 ZINC000005752191    0.0800
39     H39     1.9626    0.0320   -0.9672 H        1 ZINC000005752191    0.0800
40     H40     1.5375   -3.5010   -2.5431 H        1 ZINC000005752191    0.0900
41     H41     1.6261   -1.7749   -2.9653 H        1 ZINC000005752191    0.0900
42     H42     3.5005   -5.2416   -5.2351 H        1 ZINC000005752191    0.1500
43     H43     6.1968   -7.2170   -2.3557 H        1 ZINC000005752191    0.1400
44     H44     6.0773   -5.3076   -0.9540 H        1 ZINC000005752191    0.1300
45     H45     6.2204   -2.9448   -3.3735 H        1 ZINC000005752191    0.0600
46     H46     5.2469   -1.9619   -2.2533 H        1 ZINC000005752191    0.0800
47     H47     6.5455   -3.0043   -1.6245 H        1 ZINC000005752191    0.1100
48     H48     6.2540   -2.3754    0.7075 H        1 ZINC000005752191    0.3800
49     H49     2.9914   -3.6957    1.5714 H        1 ZINC000005752191    0.0900
50     H50     4.3883   -2.7944    2.2226 H        1 ZINC000005752191    0.0800
51     H51     4.6136   -1.0809   -0.5008 H        1 ZINC000005752191    0.1000
52     H52     3.6335    0.2594    0.1405 H        1 ZINC000005752191    0.0700
53     H53     4.8654   -0.5129    1.1672 H        1 ZINC000005752191    0.0500
54     H54     0.9471   -1.6025    3.4030 H        1 ZINC000005752191    0.3800
55     H55     1.7981    0.1087    4.5016 H        1 ZINC000005752191    0.0800
56     H56     3.2754   -0.8843    4.5037 H        1 ZINC000005752191    0.0800
57     H57     3.6059    1.2051    5.6132 H        1 ZINC000005752191    0.3900
@<TRIPOS>BOND
1     1     2     1
2     1     35    1
3     1     36    1
4     1     37    1
5     2     3     1
6     2     29    1
7     2     4     1
8     4     5     1
9     4     38    1
10    4     39    1
11    5     6     1
12    5     27    1
13    5     7     1
14    7     8     1
15    7     21    1
16    7     9     1
17    9     10    1
18    9     40    1
19    9     41    1
20    10    11    1
21    10    12    1
22    10    13    1
23    13    19    1
24    13    14    2
25    14    15    1
26    14    42    1
27    15    16    2
28    15    17    1
29    17    18    2
30    17    43    1
31    18    19    1
32    18    44    1
33    19    20    1
34    19    21    1
35    20    45    1
36    20    46    1
37    20    47    1
38    21    22    1
39    21    23    1
40    23    24    1
41    23    25    1
42    23    26    1
43    25    48    1
44    26    27    1
45    26    49    1
46    26    50    1
47    27    28    1
48    27    29    1
49    28    51    1
50    28    52    1
51    28    53    1
52    29    30    1
53    29    31    1
54    30    54    1
55    31    32    2
56    31    33    1
57    33    34    1
58    33    55    1
59    33    56    1
60    34    57    1
@<TRIPOS>SUBSTRUCTURE
1   ZINC000005752191 1     RESIDUE    1   A     ZIN   1
