@<TRIPOS>MOLECULE
ZINC000008034121
12   11    0    0    0
SMALL
USER_CHARGES
NO_NAME
@<TRIPOS>ATOM
1 N1       -0.0116     1.0048     0.0076 N.4    1 <0>      -0.6300
2 H2        0.0021    -0.0041     0.0020 H      1 <0>       0.4400
3 H3        0.9350     1.3541     0.0004 H      1 <0>       0.4400
4 H4       -0.4996     1.3391    -0.8099 H      1 <0>       0.4400
5 C5       -0.6992     1.4786     1.2162 C.3    1 <0>       0.0100
6 C6        0.0408     0.9717     2.4557 C.3    1 <0>      -0.1300
7 S7       -0.8083     1.5567     3.9482 S.3    1 <0>      -0.1900
8 H8       -0.7140     2.5685     1.2222 H      1 <0>       0.1500
9 H9       -1.7218     1.1013     1.2239 H      1 <0>       0.1500
10 H10       0.0556    -0.1181     2.4497 H      1 <0>       0.1100
11 H11       1.0634     1.3490     2.4480 H      1 <0>       0.1100
12 H12      -0.0607     1.0444     4.9420 H      1 <0>       0.1100
@<TRIPOS>BOND
1    1    2 1
2    1    3 1
3    1    4 1
4    1    5 1
5    5    6 1
6    5    8 1
7    5    9 1
8    6    7 1
9    6   10 1
10    6   11 1
11    7   12 1
