@<TRIPOS>MOLECULE
ZINC000000403566
47    50    1     0     0
SMALL
USER_CHARGES
@<TRIPOS>ATOM
1      O1      0.1030    0.0015    0.0057 O.2      1 ZINC000000403566   -0.5200
2      C2     -0.0144    1.2086    0.0087 C.2      1 ZINC000000403566    0.5300
3      C3      1.2116    2.0849   -0.0068 C.3      1 ZINC000000403566   -0.1100
4      C4      1.5714    2.4839    1.4257 C.3      1 ZINC000000403566   -0.1100
5      C5      2.8161    3.3735    1.4100 C.3      1 ZINC000000403566   -0.1200
6      C6      3.9834    2.6064    0.7857 C.3      1 ZINC000000403566   -0.1200
7      C7      3.6236    2.2073   -0.6468 C.3      1 ZINC000000403566   -0.1200
8      C8      2.3789    1.3177   -0.6310 C.3      1 ZINC000000403566   -0.1000
9      N9     -1.2412    1.7664    0.0202 N.am     1 ZINC000000403566   -0.6200
10     C10    -1.4188    3.2228   -0.0889 C.3      1 ZINC000000403566    0.0900
11     C11    -2.3696    3.6607    0.9915 C.2      1 ZINC000000403566    0.5100
12     O12    -2.3544    4.8201    1.3473 O.2      1 ZINC000000403566   -0.5300
13     N13    -3.2328    2.8185    1.5755 N.am     1 ZINC000000403566   -0.6000
14     C14    -4.2264    3.3786    2.5154 C.3      1 ZINC000000403566    0.1000
15     C15    -5.6167    3.1331    1.9325 C.3      1 ZINC000000403566   -0.1000
16     C16    -5.7661    1.6990    1.4981 C.ar     1 ZINC000000403566   -0.0700
17     C17    -7.0512    1.1868    1.3792 C.ar     1 ZINC000000403566   -0.1200
18     C18    -7.2508   -0.1181    0.9776 C.ar     1 ZINC000000403566   -0.1100
19     C19    -6.1644   -0.9229    0.6900 C.ar     1 ZINC000000403566   -0.1200
20     C20    -4.8861   -0.4167    0.8102 C.ar     1 ZINC000000403566   -0.1100
21     C21    -4.6836    0.8942    1.2179 C.ar     1 ZINC000000403566   -0.1000
22     C22    -3.2646    1.3838    1.3477 C.3      1 ZINC000000403566    0.1800
23     H23    -2.8317    0.9117    2.2296 H        1 ZINC000000403566    0.0800
24     C24    -2.4506    0.9436    0.1359 C.3      1 ZINC000000403566    0.1100
25     H25     1.0103    2.9809   -0.5939 H        1 ZINC000000403566    0.0900
26     H26     0.7398    3.0305    1.8704 H        1 ZINC000000403566    0.0600
27     H27     1.7727    1.5879    2.0128 H        1 ZINC000000403566    0.0700
28     H28     2.6148    4.2696    0.8229 H        1 ZINC000000403566    0.0700
29     H29     3.0724    3.6578    2.4305 H        1 ZINC000000403566    0.0700
30     H30     4.8702    3.2402    0.7745 H        1 ZINC000000403566    0.0600
31     H31     4.1847    1.7103    1.3728 H        1 ZINC000000403566    0.0600
32     H32     3.4223    3.1034   -1.2339 H        1 ZINC000000403566    0.0600
33     H33     4.4552    1.6608   -1.0915 H        1 ZINC000000403566    0.0700
34     H34     2.5802    0.4217   -0.0440 H        1 ZINC000000403566    0.0800
35     H35     2.1226    1.0334   -1.6516 H        1 ZINC000000403566    0.0700
36     H36    -0.4584    3.7214    0.0417 H        1 ZINC000000403566    0.1300
37     H37    -1.8329    3.4708   -1.0662 H        1 ZINC000000403566    0.1100
38     H38    -4.1393    2.8829    3.4823 H        1 ZINC000000403566    0.0800
39     H39    -4.0598    4.4493    2.6330 H        1 ZINC000000403566    0.1100
40     H40    -6.3682    3.3592    2.6890 H        1 ZINC000000403566    0.0900
41     H41    -5.7660    3.7862    1.0727 H        1 ZINC000000403566    0.0800
42     H42    -7.9010    1.8145    1.6031 H        1 ZINC000000403566    0.1200
43     H43    -8.2533   -0.5099    0.8887 H        1 ZINC000000403566    0.1300
44     H44    -6.3153   -1.9439    0.3720 H        1 ZINC000000403566    0.1300
45     H45    -4.0372   -1.0454    0.5854 H        1 ZINC000000403566    0.1300
46     H46    -3.0548    1.0540   -0.7646 H        1 ZINC000000403566    0.0800
47     H47    -2.1668   -0.1024    0.2520 H        1 ZINC000000403566    0.1200
@<TRIPOS>BOND
1     1     2     2
2     2     3     1
3     2     9     am
4     3     8     1
5     3     4     1
6     3     25    1
7     4     5     1
8     4     26    1
9     4     27    1
10    5     6     1
11    5     28    1
12    5     29    1
13    6     7     1
14    6     30    1
15    6     31    1
16    7     8     1
17    7     32    1
18    7     33    1
19    8     34    1
20    8     35    1
21    9     24    1
22    9     10    1
23    10    11    1
24    10    36    1
25    10    37    1
26    11    12    2
27    11    13    am
28    13    22    1
29    13    14    1
30    14    15    1
31    14    38    1
32    14    39    1
33    15    16    1
34    15    40    1
35    15    41    1
36    16    21    ar
37    16    17    ar
38    17    18    ar
39    17    42    1
40    18    19    ar
41    18    43    1
42    19    20    ar
43    19    44    1
44    20    21    ar
45    20    45    1
46    21    22    1
47    22    23    1
48    22    24    1
49    24    46    1
50    24    47    1
@<TRIPOS>SUBSTRUCTURE
1   ZINC000000403566 1     RESIDUE    1   A     ZIN   1
