@<TRIPOS>MOLECULE
ZINC000017146904
33    34    1     0     0
SMALL
USER_CHARGES
@<TRIPOS>ATOM
1      C1     -0.0187    1.5258    0.0104 C.3      1 ZINC000017146904   -0.1500
2      C2      0.0021   -0.0041    0.0020 C.3      1 ZINC000017146904   -0.1100
3      C3      0.7182   -0.4975   -1.2568 C.3      1 ZINC000017146904   -0.1100
4      S4      0.7428   -2.3113   -1.2668 S.3      1 ZINC000017146904   -0.1100
5      C5      1.5923   -2.6879   -2.7638 C.ar     1 ZINC000017146904   -0.0700
6      C6      2.0495   -1.6559   -3.5806 C.ar     1 ZINC000017146904   -0.1300
7      C7      2.7147   -1.9369   -4.7520 C.ar     1 ZINC000017146904   -0.0500
8      C8      2.9340   -3.2648   -5.1266 C.ar     1 ZINC000017146904    0.0600
9      N9      3.5424   -3.8441   -6.1965 N.2      1 ZINC000017146904   -0.5000
10     C10     3.4846   -5.1457   -6.0830 C.2      1 ZINC000017146904    0.5200
11     N11     4.0064   -6.0478   -6.9957 N.am     1 ZINC000017146904   -0.6100
12     C12     3.8892   -7.3724   -6.7763 C.2      1 ZINC000017146904    0.6600
13     O13     3.3260   -7.7753   -5.7781 O.2      1 ZINC000017146904   -0.5600
14     O14     4.3964   -8.2490   -7.6634 O.3      1 ZINC000017146904   -0.3500
15     C15     4.2335   -9.6601   -7.3624 C.3      1 ZINC000017146904    0.0500
16     N16     2.8338   -5.4837   -4.9304 N.pl3    1 ZINC000017146904   -0.5900
17     C17     2.4723   -4.3043   -4.3018 C.ar     1 ZINC000017146904    0.0700
18     C18     1.8080   -4.0099   -3.1213 C.ar     1 ZINC000017146904   -0.0900
19     H19     1.0039    1.9031    0.0027 H        1 ZINC000017146904    0.0600
20     H20    -0.5459    1.8868   -0.8726 H        1 ZINC000017146904    0.0600
21     H21    -0.5289    1.8773    0.9072 H        1 ZINC000017146904    0.0600
22     H22     0.5293   -0.3651    0.8851 H        1 ZINC000017146904    0.0700
23     H23    -1.0205   -0.3814    0.0098 H        1 ZINC000017146904    0.0700
24     H24     0.1910   -0.1364   -2.1398 H        1 ZINC000017146904    0.0900
25     H25     1.7408   -0.1202   -1.2645 H        1 ZINC000017146904    0.0900
26     H26     1.8805   -0.6288   -3.2927 H        1 ZINC000017146904    0.1300
27     H27     3.0662   -1.1323   -5.3809 H        1 ZINC000017146904    0.1400
28     H28     4.4561   -5.7260   -7.7927 H        1 ZINC000017146904    0.4400
29     H29     4.7205   -9.8880   -6.4142 H        1 ZINC000017146904    0.0700
30     H30     3.1717   -9.8963   -7.2915 H        1 ZINC000017146904    0.0700
31     H31     4.6859  -10.2554   -8.1555 H        1 ZINC000017146904    0.1100
32     H32     2.6581   -6.3827   -4.6114 H        1 ZINC000017146904    0.4400
33     H33     1.4571   -4.8077   -2.4836 H        1 ZINC000017146904    0.1300
@<TRIPOS>BOND
1     1     2     1
2     1     19    1
3     1     20    1
4     1     21    1
5     2     3     1
6     2     22    1
7     2     23    1
8     3     4     1
9     3     24    1
10    3     25    1
11    4     5     1
12    5     18    ar
13    5     6     ar
14    6     7     ar
15    6     26    1
16    7     8     ar
17    7     27    1
18    8     17    ar
19    8     9     1
20    9     10    2
21    10    11    1
22    10    16    1
23    11    12    am
24    11    28    1
25    12    13    2
26    12    14    1
27    14    15    1
28    15    29    1
29    15    30    1
30    15    31    1
31    16    17    1
32    16    32    1
33    17    18    ar
34    18    33    1
@<TRIPOS>SUBSTRUCTURE
1   ZINC000017146904 1     RESIDUE    1   A     ZIN   1
