@<TRIPOS>MOLECULE
ZINC000000968256
29   31    0    0    0
SMALL
USER_CHARGES
NO_NAME
@<TRIPOS>ATOM
1 N1       -0.0116     1.0048     0.0076 N.4    1 <0>      -0.6400
2 H2        0.0021    -0.0041     0.0020 H      1 <0>       0.4300
3 H3        0.9350     1.3541     0.0004 H      1 <0>       0.4300
4 H4       -0.4996     1.3391    -0.8099 H      1 <0>       0.4300
5 C5       -0.6992     1.4786     1.2162 C.3    1 <0>       0.0600
6 C6       -2.1346     0.9490     1.2270 C.3    1 <0>      -0.1300
7 C7       -2.8507     1.4424     2.4858 C.3    1 <0>      -0.0800
8 C8       -2.8715     2.9722     2.4943 C.3    1 <0>      -0.1200
9 C9       -1.4361     3.5018     2.4834 C.3    1 <0>      -0.0800
10 C10      -0.6961     2.9950     3.7229 C.3    1 <0>      -0.1200
11 C11      -0.6753     1.4652     3.7145 C.3    1 <0>      -0.0800
12 C12      -2.1107     0.9356     3.7254 C.3    1 <0>      -0.1200
13 C13       0.0408     0.9717     2.4557 C.3    1 <0>      -0.1300
14 C14      -0.7199     3.0084     1.2246 C.3    1 <0>      -0.1300
15 H15      -2.6618     1.3101     0.3440 H      1 <0>       0.0900
16 H16      -2.1198    -0.1409     1.2210 H      1 <0>       0.0900
17 H17      -3.8733     1.0651     2.4936 H      1 <0>       0.0900
18 H18      -3.3986     3.3333     1.6112 H      1 <0>       0.0700
19 H19      -3.3817     3.3238     3.3911 H      1 <0>       0.0800
20 H20      -1.4509     4.5917     2.4894 H      1 <0>       0.0900
21 H21       0.3265     3.3723     3.7152 H      1 <0>       0.0700
22 H22      -1.2063     3.3465     4.6197 H      1 <0>       0.0800
23 H23      -0.1482     1.1041     4.5976 H      1 <0>       0.0900
24 H24      -2.6209     1.2871     4.6222 H      1 <0>       0.0800
25 H25      -2.0959    -0.1543     3.7194 H      1 <0>       0.0700
26 H26       0.0556    -0.1181     2.4497 H      1 <0>       0.0900
27 H27       1.0634     1.3490     2.4480 H      1 <0>       0.0900
28 H28       0.3027     3.3857     1.2169 H      1 <0>       0.0900
29 H29      -1.2471     3.3695     0.3415 H      1 <0>       0.0900
@<TRIPOS>BOND
1    1    2 1
2    1    3 1
3    1    4 1
4    1    5 1
5    5   13 1
6    5   14 1
7    5    6 1
8    6    7 1
9    6   15 1
10    6   16 1
11    7   12 1
12    7    8 1
13    7   17 1
14    8    9 1
15    8   18 1
16    8   19 1
17    9   10 1
18    9   14 1
19    9   20 1
20   10   11 1
21   10   21 1
22   10   22 1
23   11   12 1
24   11   13 1
25   11   23 1
26   12   24 1
27   12   25 1
28   13   26 1
29   13   27 1
30   14   28 1
31   14   29 1
