@<TRIPOS>MOLECULE
ZINC000148723177
79    83    1     0     0
SMALL
USER_CHARGES
@<TRIPOS>ATOM
1      C1      0.0343    1.4289    0.0042 C.3      1 ZINC000148723177    0.0300
2      O2      0.0397   -0.0001    0.0009 O.3      1 ZINC000148723177   -0.3200
3      C3      0.6107   -0.6129   -1.0704 C.ar     1 ZINC000148723177    0.1200
4      C4      1.1580    0.1447   -2.0918 C.ar     1 ZINC000148723177   -0.2100
5      C5      1.7405   -0.4832   -3.1851 C.ar     1 ZINC000148723177    0.1300
6      N6      2.2940    0.2818   -4.2179 N.3      1 ZINC000148723177   -0.4900
7      C7      1.3047    1.2171   -4.7682 C.3      1 ZINC000148723177    0.0600
8      C8      1.9808    2.1337   -5.7904 C.3      1 ZINC000148723177   -0.1200
9      C9      2.5847    1.2827   -6.9109 C.3      1 ZINC000148723177    0.0900
10     N10     3.2855    2.1527   -7.8648 N.3      1 ZINC000148723177   -0.5300
11     C11     2.4654    3.3217   -8.2121 C.3      1 ZINC000148723177    0.0500
12     C12     3.2601    4.2406   -9.1430 C.3      1 ZINC000148723177    0.0600
13     N13     3.6474    3.4956  -10.3490 N.3      1 ZINC000148723177   -0.5500
14     C14     4.3482    4.3656  -11.3029 C.3      1 ZINC000148723177    0.0200
15     C15     4.4675    2.3266  -10.0017 C.3      1 ZINC000148723177    0.0600
16     C16     3.6728    1.4077   -9.0708 C.3      1 ZINC000148723177    0.0600
17     C17     3.5755    0.2845   -6.3055 C.3      1 ZINC000148723177   -0.1100
18     C18     2.8532   -0.5785   -5.2684 C.3      1 ZINC000148723177    0.0500
19     C19     1.7745   -1.8694   -3.2536 C.ar     1 ZINC000148723177   -0.1800
20     C20     1.2281   -2.6271   -2.2348 C.ar     1 ZINC000148723177   -0.0600
21     C21     0.6507   -2.0039   -1.1389 C.ar     1 ZINC000148723177    0.1100
22     N22     0.0965   -2.7739   -0.1048 N.pl3    1 ZINC000148723177   -0.6200
23     C23     0.5448   -4.0661    0.1130 C.ar     1 ZINC000148723177    0.6000
24     N24     1.5806   -4.5155   -0.5798 N.ar     1 ZINC000148723177   -0.5700
25     C25     2.0389   -5.7459   -0.3994 C.ar     1 ZINC000148723177    0.2400
26     C26     1.4237   -6.5672    0.5260 C.ar     1 ZINC000148723177   -0.2400
27     Cl27    1.9926   -8.1854    0.7938 Cl       1 ZINC000148723177   -0.0400
28     C28     0.3333   -6.0652    1.2418 C.ar     1 ZINC000148723177    0.4900
29     N29    -0.3153   -6.8533    2.1807 N.pl3    1 ZINC000148723177   -0.6400
30     C30    -1.4771   -6.3867    2.8022 C.ar     1 ZINC000148723177    0.2400
31     C31    -2.2677   -5.4333    2.1737 C.ar     1 ZINC000148723177   -0.1400
32     C32    -3.4154   -4.9747    2.7904 C.ar     1 ZINC000148723177   -0.0600
33     C33    -3.7773   -5.4634    4.0322 C.ar     1 ZINC000148723177   -0.1600
34     C34    -2.9921   -6.4126    4.6610 C.ar     1 ZINC000148723177   -0.0500
35     C35    -1.8468   -6.8798    4.0473 C.ar     1 ZINC000148723177   -0.7600
36     P36    -0.8176   -8.1248    4.8728 P.3      1 ZINC000148723177    2.5300
37     C37    -1.3810   -8.3348    6.5938 C.3      1 ZINC000148723177   -0.8100
38     C38    -0.9588   -9.7130    3.9891 C.3      1 ZINC000148723177   -0.8100
39     O39     0.5942   -7.6806    4.8667 O.2      1 ZINC000148723177   -0.9900
40     N40    -0.0697   -4.8197    1.0129 N.ar     1 ZINC000148723177   -0.5900
41     H41     1.0599    1.7962   -0.0311 H        1 ZINC000148723177    0.0600
42     H42    -0.5119    1.7921   -0.8664 H        1 ZINC000148723177    0.0600
43     H43    -0.4494    1.7883    0.9125 H        1 ZINC000148723177    0.1000
44     H44     1.1316    1.2231   -2.0386 H        1 ZINC000148723177    0.1300
45     H45     0.5065    0.6567   -5.2550 H        1 ZINC000148723177    0.0400
46     H46     0.8860    1.8190   -3.9617 H        1 ZINC000148723177    0.0800
47     H47     1.2429    2.8175   -6.2101 H        1 ZINC000148723177    0.0700
48     H48     2.7700    2.7046   -5.3013 H        1 ZINC000148723177    0.0800
49     H49     1.7907    0.7423   -7.4262 H        1 ZINC000148723177    0.0400
50     H50     1.5567    2.9918   -8.7157 H        1 ZINC000148723177    0.0400
51     H51     2.2019    3.8638   -7.3040 H        1 ZINC000148723177    0.0900
52     H52     2.6433    5.0939   -9.4251 H        1 ZINC000148723177    0.0800
53     H53     4.1550    4.5923   -8.6297 H        1 ZINC000148723177    0.0400
54     H54     5.2477    4.7666  -10.8359 H        1 ZINC000148723177    0.0300
55     H55     4.6235    3.7891  -12.1860 H        1 ZINC000148723177    0.0700
56     H56     3.6933    5.1867  -11.5946 H        1 ZINC000148723177    0.0700
57     H57     4.7310    1.7845  -10.9098 H        1 ZINC000148723177    0.0800
58     H58     5.3762    2.6566   -9.4981 H        1 ZINC000148723177    0.0400
59     H59     4.2896    0.5544   -8.7887 H        1 ZINC000148723177    0.0800
60     H60     2.7779    1.0560   -9.5841 H        1 ZINC000148723177    0.0400
61     H61     3.9770   -0.3530   -7.0933 H        1 ZINC000148723177    0.0700
62     H62     4.3899    0.8263   -5.8245 H        1 ZINC000148723177    0.0800
63     H63     3.5592   -1.2808   -4.8252 H        1 ZINC000148723177    0.0900
64     H64     2.0477   -1.1305   -5.7528 H        1 ZINC000148723177    0.0500
65     H65     2.2281   -2.3564   -4.1041 H        1 ZINC000148723177    0.1300
66     H66     1.2552   -3.7053   -2.2901 H        1 ZINC000148723177    0.1600
67     H67    -0.6004   -2.4011    0.4575 H        1 ZINC000148723177    0.4300
68     H68     2.8838   -6.1028   -0.9696 H        1 ZINC000148723177    0.1800
69     H69     0.0373   -7.7284    2.4061 H        1 ZINC000148723177    0.4200
70     H70    -1.9852   -5.0506    1.2041 H        1 ZINC000148723177    0.1600
71     H71    -4.0306   -4.2333    2.3023 H        1 ZINC000148723177    0.1300
72     H72    -4.6750   -5.1028    4.5124 H        1 ZINC000148723177    0.1300
73     H73    -3.2774   -6.7920    5.6310 H        1 ZINC000148723177    0.1300
74     H74    -2.4208   -8.6619    6.5984 H        1 ZINC000148723177    0.0900
75     H75    -0.7626   -9.0828    7.0899 H        1 ZINC000148723177    0.1100
76     H76    -1.2966   -7.3851    7.1222 H        1 ZINC000148723177    0.1100
77     H77    -0.6219   -9.5874    2.9601 H        1 ZINC000148723177    0.1000
78     H78    -0.3404  -10.4611    4.4852 H        1 ZINC000148723177    0.1200
79     H79    -1.9986  -10.0401    3.9937 H        1 ZINC000148723177    0.1000
@<TRIPOS>BOND
1     1     2     1
2     1     41    1
3     1     42    1
4     1     43    1
5     2     3     1
6     3     21    ar
7     3     4     ar
8     4     5     ar
9     4     44    1
10    5     6     1
11    5     19    ar
12    6     18    1
13    6     7     1
14    7     8     1
15    7     45    1
16    7     46    1
17    8     9     1
18    8     47    1
19    8     48    1
20    9     10    1
21    9     17    1
22    9     49    1
23    10    16    1
24    10    11    1
25    11    12    1
26    11    50    1
27    11    51    1
28    12    13    1
29    12    52    1
30    12    53    1
31    13    14    1
32    13    15    1
33    14    54    1
34    14    55    1
35    14    56    1
36    15    16    1
37    15    57    1
38    15    58    1
39    16    59    1
40    16    60    1
41    17    18    1
42    17    61    1
43    17    62    1
44    18    63    1
45    18    64    1
46    19    20    ar
47    19    65    1
48    20    21    ar
49    20    66    1
50    21    22    1
51    22    23    1
52    22    67    1
53    23    40    ar
54    23    24    ar
55    24    25    ar
56    25    26    ar
57    25    68    1
58    26    27    1
59    26    28    ar
60    28    29    1
61    28    40    ar
62    29    30    1
63    29    69    1
64    30    35    ar
65    30    31    ar
66    31    32    ar
67    31    70    1
68    32    33    ar
69    32    71    1
70    33    34    ar
71    33    72    1
72    34    35    ar
73    34    73    1
74    35    36    1
75    36    37    1
76    36    38    1
77    36    39    2
78    37    74    1
79    37    75    1
80    37    76    1
81    38    77    1
82    38    78    1
83    38    79    1
@<TRIPOS>SUBSTRUCTURE
1   ZINC000148723177 1     RESIDUE    1   A     ZIN   1
