@<TRIPOS>MOLECULE
ZINC000003812913
65    65    1     0     0
SMALL
USER_CHARGES
@<TRIPOS>ATOM
1      C1     -0.0187    1.5258    0.0104 C.3      1 ZINC000003812913   -0.1500
2      C2      0.0021   -0.0041    0.0020 C.3      1 ZINC000003812913   -0.1300
3      C3      0.7421   -0.5109    1.2415 C.3      1 ZINC000003812913   -0.1200
4      C4      0.7628   -2.0407    1.2331 C.3      1 ZINC000003812913   -0.1500
5      C5      1.5028   -2.5476    2.4727 C.3      1 ZINC000003812913    0.1400
6      C6      0.7867   -2.0542    3.7315 C.3      1 ZINC000003812913   -0.1400
7      O7      2.8434   -2.0530    2.4625 O.3      1 ZINC000003812913   -0.5500
8      C8      1.5236   -4.0774    2.4642 C.3      1 ZINC000003812913   -0.1200
9      C9      2.1430   -4.5784    3.7434 C.2      1 ZINC000003812913   -0.1300
10     C10     1.4887   -5.4234    4.5010 C.2      1 ZINC000003812913   -0.1600
11     C11     2.1082   -5.9244    5.7802 C.3      1 ZINC000003812913   -0.0400
12     H12     3.0911   -5.4775    5.9291 H        1 ZINC000003812913    0.1000
13     C13     1.1842   -5.6227    6.9873 C.3      1 ZINC000003812913    0.1100
14     H14     0.1364   -5.7474    6.7142 H        1 ZINC000003812913    0.0700
15     O15     1.4222   -4.3076    7.4932 O.3      1 ZINC000003812913   -0.5500
16     C16     1.6180   -6.6991    8.0132 C.3      1 ZINC000003812913   -0.2200
17     C17     1.8902   -7.9344    7.1733 C.2      1 ZINC000003812913    0.3800
18     O18     1.8604   -9.0798    7.5546 O.2      1 ZINC000003812913   -0.4300
19     C19     2.2091   -7.4639    5.7669 C.3      1 ZINC000003812913   -0.1400
20     H20     1.4863   -7.8766    5.0631 H        1 ZINC000003812913    0.1100
21     C21     3.6237   -7.8983    5.3784 C.3      1 ZINC000003812913   -0.1000
22     C22     3.6788   -9.4239    5.2765 C.3      1 ZINC000003812913   -0.1300
23     C23     5.0934   -9.8583    4.8880 C.3      1 ZINC000003812913   -0.1200
24     C24     5.1485  -11.3839    4.7861 C.3      1 ZINC000003812913   -0.1200
25     C25     6.5632  -11.8184    4.3975 C.3      1 ZINC000003812913   -0.1100
26     C26     6.6183  -13.3440    4.2957 C.3      1 ZINC000003812913   -0.1100
27     C27     8.0116  -13.7719    3.9130 C.2      1 ZINC000003812913    0.4600
28     O28     8.8723  -12.9418    3.7395 O.2      1 ZINC000003812913   -0.5100
29     O29     8.2966  -15.0752    3.7648 O.3      1 ZINC000003812913   -0.3600
30     C30     9.6592  -15.4142    3.3951 C.3      1 ZINC000003812913    0.0300
31     H31     1.0039    1.9031    0.0027 H        1 ZINC000003812913    0.0500
32     H32    -0.5459    1.8868   -0.8726 H        1 ZINC000003812913    0.0500
33     H33    -0.5289    1.8773    0.9072 H        1 ZINC000003812913    0.0500
34     H34    -1.0205   -0.3814    0.0098 H        1 ZINC000003812913    0.0600
35     H35     0.5123   -0.3556   -0.8948 H        1 ZINC000003812913    0.0600
36     H36     1.7647   -0.1336    1.2338 H        1 ZINC000003812913    0.0700
37     H37     0.2319   -0.1594    2.1383 H        1 ZINC000003812913    0.0600
38     H38    -0.2598   -2.4180    1.2409 H        1 ZINC000003812913    0.0700
39     H39     1.2730   -2.3923    0.3363 H        1 ZINC000003812913    0.0600
40     H40    -0.2359   -2.4314    3.7392 H        1 ZINC000003812913    0.0700
41     H41     1.3139   -2.4152    4.6145 H        1 ZINC000003812913    0.0700
42     H42     0.7719   -0.9643    3.7375 H        1 ZINC000003812913    0.0600
43     H43     3.3580   -2.3271    1.6910 H        1 ZINC000003812913    0.3700
44     H44     0.5040   -4.4542    2.3824 H        1 ZINC000003812913    0.0700
45     H45     2.1098   -4.4282    1.6149 H        1 ZINC000003812913    0.0700
46     H46     3.1265   -4.2409    4.0355 H        1 ZINC000003812913    0.1100
47     H47     0.5053   -5.7610    4.2089 H        1 ZINC000003812913    0.1100
48     H48     0.8682   -4.0710    8.2497 H        1 ZINC000003812913    0.3800
49     H49     2.5229   -6.3859    8.5340 H        1 ZINC000003812913    0.1100
50     H50     0.8154   -6.8919    8.7250 H        1 ZINC000003812913    0.1000
51     H51     3.8868   -7.4601    4.4156 H        1 ZINC000003812913    0.0800
52     H52     4.3292   -7.5591    6.1369 H        1 ZINC000003812913    0.0700
53     H53     3.4157   -9.8621    6.2393 H        1 ZINC000003812913    0.0800
54     H54     2.9733   -9.7631    4.5180 H        1 ZINC000003812913    0.0600
55     H55     5.3565   -9.4202    3.9252 H        1 ZINC000003812913    0.0600
56     H56     5.7989   -9.5191    5.6465 H        1 ZINC000003812913    0.0600
57     H57     4.8855  -11.8221    5.7489 H        1 ZINC000003812913    0.0700
58     H58     4.4431  -11.7232    4.0276 H        1 ZINC000003812913    0.0600
59     H59     6.8263  -11.3802    3.4348 H        1 ZINC000003812913    0.0700
60     H60     7.2687  -11.4792    5.1560 H        1 ZINC000003812913    0.0700
61     H61     6.3552  -13.7822    5.2584 H        1 ZINC000003812913    0.1100
62     H62     5.9128  -13.6832    3.5372 H        1 ZINC000003812913    0.1100
63     H63     9.7536  -16.4966    3.3086 H        1 ZINC000003812913    0.1000
64     H64     9.9022  -14.9507    2.4389 H        1 ZINC000003812913    0.0600
65     H65    10.3446  -15.0497    4.1602 H        1 ZINC000003812913    0.0600
@<TRIPOS>BOND
1     1     2     1
2     1     31    1
3     1     32    1
4     1     33    1
5     2     3     1
6     2     34    1
7     2     35    1
8     3     4     1
9     3     36    1
10    3     37    1
11    4     5     1
12    4     38    1
13    4     39    1
14    5     6     1
15    5     7     1
16    5     8     1
17    6     40    1
18    6     41    1
19    6     42    1
20    7     43    1
21    8     9     1
22    8     44    1
23    8     45    1
24    9     10    2
25    9     46    1
26    10    11    1
27    10    47    1
28    11    12    1
29    11    19    1
30    11    13    1
31    13    14    1
32    13    15    1
33    13    16    1
34    15    48    1
35    16    17    1
36    16    49    1
37    16    50    1
38    17    18    2
39    17    19    1
40    19    20    1
41    19    21    1
42    21    22    1
43    21    51    1
44    21    52    1
45    22    23    1
46    22    53    1
47    22    54    1
48    23    24    1
49    23    55    1
50    23    56    1
51    24    25    1
52    24    57    1
53    24    58    1
54    25    26    1
55    25    59    1
56    25    60    1
57    26    27    1
58    26    61    1
59    26    62    1
60    27    28    2
61    27    29    1
62    29    30    1
63    30    63    1
64    30    64    1
65    30    65    1
@<TRIPOS>SUBSTRUCTURE
1   ZINC000003812913 1     RESIDUE    1   A     ZIN   1
