@<TRIPOS>MOLECULE
ZINC000100070937
17   17    0    0    0
SMALL
USER_CHARGES
NO_NAME
@<TRIPOS>ATOM
1 N1       -0.0116     1.0048     0.0076 N.4    1 <0>      -0.6000
2 H2        0.0021    -0.0041     0.0020 H      1 <0>       0.4300
3 H3        0.9350     1.3541     0.0004 H      1 <0>       0.4200
4 H4       -0.4996     1.3391    -0.8099 H      1 <0>       0.4400
5 C5       -0.6992     1.4786     1.2162 C.3    1 <0>      -0.0500
6 C6       -2.1854     1.2316     1.1788 C.2    1 <0>       0.5100
7 O7       -2.6660     0.5373     0.2994 O.co2  1 <0>      -0.6600
8 O8       -2.9071     1.7262     2.0279 O.co2  1 <0>      -0.6300
9 C9       -0.3213     2.9143     1.6171 C.3    1 <0>      -0.1500
10 C10      -0.3304     2.4256     3.0752 C.3    1 <0>       0.0800
11 H11      -1.3048     2.5073     3.5570 H      1 <0>       0.1400
12 F12       0.7054     2.9572     3.8509 F      1 <0>      -0.2000
13 C13      -0.0315     1.0215     2.5239 C.3    1 <0>      -0.1600
14 H14       0.6638     3.2209     1.2656 H      1 <0>       0.1000
15 H15      -1.0973     3.6476     1.3975 H      1 <0>       0.1100
16 H16      -0.5736     0.2267     3.0363 H      1 <0>       0.1100
17 H17       1.0328     0.8106     2.4202 H      1 <0>       0.1000
@<TRIPOS>BOND
1    1    2 1
2    1    3 1
3    1    4 1
4    1    5 1
5    5   13 1
6    5    6 1
7    5    9 1
8    6    7 ar
9    6    8 ar
10    9   10 1
11    9   14 1
12    9   15 1
13   10   11 1
14   10   12 1
15   10   13 1
16   13   16 1
17   13   17 1
