@<TRIPOS>MOLECULE
ZINC000013585233
31   32    0    0    0
SMALL
USER_CHARGES
NO_NAME
@<TRIPOS>ATOM
1 C1       -0.0187     1.5258     0.0104 C.3    1 <0>      -0.1800
2 C2        0.0021    -0.0041     0.0020 C.3    1 <0>       0.0800
3 H3       -1.0205    -0.3814     0.0098 H      1 <0>       0.0900
4 O4        0.6932    -0.4774     1.1597 O.3    1 <0>      -0.5300
5 C5        0.7182    -0.4975    -1.2568 C.3    1 <0>       0.0600
6 H6        1.7408    -0.1202    -1.2645 H      1 <0>       0.1000
7 O7        0.0271    -0.0241    -2.4145 O.3    1 <0>      -0.5600
8 C8        0.7390    -2.0273    -1.2652 C.3    1 <0>       0.1300
9 H9       -0.2818    -2.4095    -1.2575 H      1 <0>       0.0700
10 C10       1.4716    -2.5295    -2.5180 C.3    1 <0>       0.1300
11 N11       2.8683    -2.0763    -2.4500 N.pl3  1 <0>      -0.7300
12 C12       3.5652    -2.2185    -1.2603 C.2    1 <0>       0.3800
13 C13       2.8746    -2.4384    -0.0767 C.2    1 <0>      -0.1500
14 N14       1.4639    -2.5214    -0.0834 N.pl3  1 <0>      -0.7200
15 C15       3.5942    -2.5758     1.1150 C.2    1 <0>       0.5200
16 O16       3.0170    -2.7697     2.1742 O.2    1 <0>      -0.6300
17 N17       4.9416    -2.4896     1.0685 N.pl3  1 <0>      -0.7100
18 C18       5.5724    -2.2748    -0.1182 C.2    1 <0>       0.5800
19 N19       6.9417    -2.1927    -0.1428 N.pl3  1 <0>      -0.8400
20 N20       4.9013    -2.1444    -1.2426 N.2    1 <0>      -0.6800
21 H21       1.0039     1.9031     0.0027 H      1 <0>       0.0500
22 H22      -0.5459     1.8868    -0.8726 H      1 <0>       0.0600
23 H23      -0.5289     1.8773     0.9072 H      1 <0>       0.0600
24 H24       1.6114    -0.1800     1.2187 H      1 <0>       0.3800
25 H25      -0.8911    -0.3216    -2.4734 H      1 <0>       0.3700
26 H26       1.4400    -3.6185    -2.5501 H      1 <0>       0.0500
27 H27       0.9961    -2.1213    -3.4098 H      1 <0>       0.0700
28 H28       3.2962    -1.6831    -3.2267 H      1 <0>       0.3900
29 H29       0.9853    -2.8954     0.6729 H      1 <0>       0.4000
30 H30       7.4481    -2.2874     0.6791 H      1 <0>       0.4000
31 H31       7.4034    -2.0399    -0.9821 H      1 <0>       0.3900
@<TRIPOS>BOND
1    1    2 1
2    1   21 1
3    1   22 1
4    1   23 1
5    2    3 1
6    2    4 1
7    2    5 1
8    4   24 1
9    5    6 1
10    5    7 1
11    5    8 1
12    7   25 1
13    8    9 1
14    8   14 1
15    8   10 1
16   10   11 1
17   10   26 1
18   10   27 1
19   11   12 1
20   11   28 1
21   12   20 1
22   12   13 2
23   13   14 1
24   13   15 1
25   14   29 1
26   15   16 2
27   15   17 1
28   17   18 1
29   18   19 1
30   18   20 2
31   19   30 1
32   19   31 1
