@<TRIPOS>MOLECULE
ZINC000000901791
18   18    0    0    0
SMALL
USER_CHARGES
NO_NAME
@<TRIPOS>ATOM
1 O1        0.0021    -0.0041     0.0020 O.co2  1 <0>      -0.6700
2 C2       -0.0145     1.2150     0.0087 C.2    1 <0>       0.4900
3 O3        1.0330     1.8389     0.0021 O.co2  1 <0>      -0.6300
4 C4       -1.3296     1.9507     0.0190 C.3    1 <0>      -0.0400
5 H5       -1.4247     2.5785    -0.8670 H      1 <0>       0.1400
6 C6       -1.4719     2.7987     1.3079 C.3    1 <0>      -0.1200
7 C7       -3.0036     2.9435     1.4592 C.3    1 <0>       0.0900
8 H8       -3.2889     2.8676     2.5084 H      1 <0>       0.1000
9 O9       -3.4399     4.1913     0.9163 O.3    1 <0>      -0.5500
10 C10      -3.5995     1.7717     0.6571 C.3    1 <0>      -0.0400
11 N11      -2.4638     0.9958     0.1090 N.4    1 <0>      -0.4900
12 H12      -2.6961     0.6378    -0.8053 H      1 <0>       0.4300
13 H13      -2.2286     0.2368     0.7308 H      1 <0>       0.4300
14 H14      -1.0476     2.2737     2.1637 H      1 <0>       0.1000
15 H15      -1.0028     3.7745     1.1813 H      1 <0>       0.1200
16 H16      -4.3934     4.3374     0.9833 H      1 <0>       0.3900
17 H17      -4.2002     1.1408     1.3123 H      1 <0>       0.1300
18 H18      -4.2126     2.1541    -0.1590 H      1 <0>       0.1300
@<TRIPOS>BOND
1    1    2 ar
2    2    3 ar
3    2    4 1
4    4    5 1
5    4   11 1
6    4    6 1
7    6    7 1
8    6   14 1
9    6   15 1
10    7    8 1
11    7    9 1
12    7   10 1
13    9   16 1
14   10   11 1
15   10   17 1
16   10   18 1
17   11   12 1
18   11   13 1
