@<TRIPOS>MOLECULE
ZINC000001536109
56   58    0    0    0
SMALL
USER_CHARGES
NO_NAME
@<TRIPOS>ATOM
1 C1       -0.1570    -1.2118    -0.1355 C.1    1 <0>      -0.2200
2 C2       -0.0980    -0.0407    -0.0763 C.1    1 <0>      -0.1700
3 C3       -0.0239     1.4275    -0.0020 C.3    1 <0>      -0.0100
4 C4        1.4419     1.8619     0.0574 C.3    1 <0>      -0.0300
5 H5        1.9398     1.3492     0.8804 H      1 <0>       0.0800
6 C6        2.1336     1.5039    -1.2596 C.3    1 <0>      -0.0500
7 C7        3.6047     1.8141    -1.1548 C.ar   1 <0>       0.0400
8 C8        4.4679     0.8802    -0.5838 C.ar   1 <0>       0.1400
9 N9        5.7566     1.1286    -0.4810 N.ar   1 <0>      -0.4500
10 C10       6.2415     2.2886    -0.9295 C.ar   1 <0>       0.3700
11 N11       7.5437     2.5907    -0.8494 N.ar   1 <0>      -0.6100
12 C12       8.0042     3.7411    -1.2980 C.ar   1 <0>       0.6400
13 N13       9.3584     3.9921    -1.1859 N.pl3  1 <0>      -0.8100
14 N14       7.2351     4.6729    -1.8531 N.ar   1 <0>      -0.6300
15 C15       5.9288     4.4948    -1.9906 C.ar   1 <0>       0.5500
16 N16       5.1343     5.4617    -2.5665 N.pl3  1 <0>      -0.7800
17 C17       5.3595     3.2343    -1.5095 C.ar   1 <0>      -0.0800
18 N18       4.0626     2.9618    -1.6082 N.ar   1 <0>      -0.3600
19 C19       1.5161     3.3512     0.2751 C.ar   1 <0>      -0.0700
20 C20       0.9428     4.2112    -0.6448 C.ar   1 <0>      -0.1100
21 C21       1.0075     5.5756    -0.4517 C.ar   1 <0>      -0.0600
22 C22       1.6527     6.0880     0.6749 C.ar   1 <0>      -0.1000
23 C23       1.7255     7.5492     0.8885 C.2    1 <0>       0.5500
24 O24       1.2228     8.3070     0.0821 O.2    1 <0>      -0.5600
25 N25       2.3492     8.0408     1.9775 N.am   1 <0>      -0.6800
26 C26       2.4212     9.4886     2.1891 C.3    1 <0>       0.0700
27 H27       1.5056     9.9550     1.8255 H      1 <0>       0.0800
28 C28       2.5828     9.7783     3.6827 C.3    1 <0>      -0.0800
29 C29       1.3277     9.3221     4.4294 C.3    1 <0>      -0.1800
30 C30       1.4869     9.6074     5.9006 C.2    1 <0>       0.4900
31 O31       2.5094    10.1274     6.3136 O.co2  1 <0>      -0.7000
32 O32       0.5931     9.3181     6.6778 O.co2  1 <0>      -0.7200
33 C33       3.6022    10.0479     1.4384 C.2    1 <0>       0.5000
34 O34       4.3173     9.3058     0.7869 O.co2  1 <0>      -0.7000
35 O35       3.8425    11.2424     1.4824 O.co2  1 <0>      -0.7000
36 C36       2.2285     5.2150     1.5993 C.ar   1 <0>      -0.0800
37 C37       2.1522     3.8525     1.3969 C.ar   1 <0>      -0.1200
38 H38      -0.2098    -2.2591    -0.1885 H      1 <0>       0.2100
39 H39      -0.4957     1.8602    -0.8842 H      1 <0>       0.0900
40 H40      -0.5417     1.7726     0.8930 H      1 <0>       0.1000
41 H41       1.9999     0.4415    -1.4631 H      1 <0>       0.0900
42 H42       1.6962     2.0870    -2.0699 H      1 <0>       0.0900
43 H43       4.0747    -0.0581    -0.2212 H      1 <0>       0.1700
44 H44       9.9429     3.3298    -0.7853 H      1 <0>       0.4200
45 H45       9.7245     4.8307    -1.5079 H      1 <0>       0.4200
46 H46       5.5292     6.2905    -2.8798 H      1 <0>       0.4200
47 H47       4.1801     5.3138    -2.6588 H      1 <0>       0.4300
48 H48       0.4439     3.8134    -1.5162 H      1 <0>       0.1200
49 H49       0.5603     6.2458    -1.1709 H      1 <0>       0.1300
50 H50       2.7503     7.4360     2.6210 H      1 <0>       0.3900
51 H51       3.4494     9.2394     4.0657 H      1 <0>       0.0500
52 H52       2.7255    10.8486     3.8319 H      1 <0>       0.0800
53 H53       0.4611     9.8610     4.0465 H      1 <0>       0.0500
54 H54       1.1851     8.2518     4.2802 H      1 <0>       0.0500
55 H55       2.7295     5.6051     2.4729 H      1 <0>       0.1300
56 H56       2.5970     3.1758     2.1115 H      1 <0>       0.1200
@<TRIPOS>BOND
1    1    2 3
2    1   38 1
3    2    3 1
4    3    4 1
5    3   39 1
6    3   40 1
7    4    5 1
8    4    6 1
9    4   19 1
10    6    7 1
11    6   41 1
12    6   42 1
13    7   18 ar
14    7    8 ar
15    8    9 ar
16    8   43 1
17    9   10 ar
18   10   17 ar
19   10   11 ar
20   11   12 ar
21   12   13 1
22   12   14 ar
23   13   44 1
24   13   45 1
25   14   15 ar
26   15   16 1
27   15   17 ar
28   16   46 1
29   16   47 1
30   17   18 ar
31   19   37 ar
32   19   20 ar
33   20   21 ar
34   20   48 1
35   21   22 ar
36   21   49 1
37   22   23 1
38   22   36 ar
39   23   24 2
40   23   25 am
41   25   26 1
42   25   50 1
43   26   27 1
44   26   28 1
45   26   33 1
46   28   29 1
47   28   51 1
48   28   52 1
49   29   30 1
50   29   53 1
51   29   54 1
52   30   31 ar
53   30   32 ar
54   33   34 ar
55   33   35 ar
56   36   37 ar
57   36   55 1
58   37   56 1
