@<TRIPOS>MOLECULE
ZINC000003813042
19   19    0    0    0
SMALL
USER_CHARGES
NO_NAME
@<TRIPOS>ATOM
1 C1       -0.0184     1.5028     0.0103 C.3    1 <0>      -0.1700
2 C2        0.0021    -0.0041     0.0020 C.2    1 <0>       0.5000
3 O3        1.0605    -0.5961    -0.0113 O.2    1 <0>      -0.4600
4 N4       -1.1558    -0.6938     0.0094 N.am   1 <0>      -0.6300
5 C5       -1.1370    -2.0844     0.0017 C.2    1 <0>       0.2500
6 N6       -0.0714    -2.8270    -0.0068 N.2    1 <0>      -0.2800
7 N7       -0.2299    -4.0795    -0.0122 N.2    1 <0>      -0.0900
8 C8       -1.4518    -4.5090    -0.0088 C.2    1 <0>      -0.6100
9 S9       -1.9605    -6.1960    -0.0143 S.o2   1 <0>       2.7400
10 N10      -2.0944    -6.6727     1.5660 N.am   1 <0>      -1.2400
11 O11      -3.2755    -6.2168    -0.5524 O.2    1 <0>      -0.9400
12 O12      -0.8825    -6.9383    -0.5674 O.2    1 <0>      -0.9200
13 S13      -2.5152    -3.1017     0.0094 S.3    1 <0>       0.2500
14 H14       1.0042     1.8801     0.0026 H      1 <0>       0.1100
15 H15      -0.5455     1.8639    -0.8728 H      1 <0>       0.1000
16 H16      -0.5286     1.8543     0.9071 H      1 <0>       0.1000
17 H17      -2.0023    -0.2203     0.0200 H      1 <0>       0.4300
18 H18      -2.7374    -7.3554     1.8138 H      1 <0>       0.4300
19 H19      -1.5298    -6.2693     2.2438 H      1 <0>       0.4200
@<TRIPOS>BOND
1    1    2 1
2    1   14 1
3    1   15 1
4    1   16 1
5    2    3 2
6    2    4 am
7    4    5 1
8    4   17 1
9    5   13 1
10    5    6 2
11    6    7 1
12    7    8 2
13    8    9 1
14    8   13 1
15    9   10 am
16    9   11 2
17    9   12 2
18   10   18 1
19   10   19 1
