@<TRIPOS>MOLECULE
ZINC000043207851
41   44    0    0    0
SMALL
USER_CHARGES
NO_NAME
@<TRIPOS>ATOM
1 N1        0.0175    -1.1399    -0.0042 N.1    1 <0>      -0.4100
2 C2        0.0021    -0.0041     0.0020 C.1    1 <0>       0.1900
3 C3       -0.0179     1.4678     0.0101 C.3    1 <0>      -0.0400
4 C4        1.4175     1.9974    -0.0007 C.3    1 <0>       0.1700
5 H5        1.9704     1.5656     0.8335 H      1 <0>       0.1200
6 C6        1.3998     3.5214     0.1333 C.3    1 <0>      -0.1000
7 C7        0.8384     3.9375     1.5156 C.3    1 <0>      -0.1200
8 C8        1.4390     5.3509     1.7171 C.3    1 <0>      -0.1200
9 C9        2.8624     5.2440     1.1320 C.3    1 <0>      -0.1300
10 C10       2.8375     4.0808     0.1250 C.3    1 <0>      -0.1100
11 N11       2.0657     1.6255    -1.2608 N.pl3  1 <0>      -0.3600
12 C12       1.4673     1.5557    -2.4646 C.2    1 <0>       0.1100
13 C13       2.4135     1.1750    -3.3750 C.2    1 <0>      -0.2100
14 C14       2.2013     0.9723    -4.8258 C.ar   1 <0>       0.3200
15 C15       3.2078     1.2900    -5.7528 C.ar   1 <0>      -0.2000
16 C16       4.5630     1.8277    -5.6667 C.2    1 <0>      -0.1700
17 C17       5.0306     1.9072    -6.9239 C.2    1 <0>       0.0600
18 N18       4.0785     1.4620    -7.8034 N.pl3  1 <0>      -0.5700
19 C19       2.9552     1.0783    -7.1229 C.ar   1 <0>       0.3200
20 N20       1.7730     0.5851    -7.4827 N.ar   1 <0>      -0.5400
21 C21       0.8589     0.3009    -6.5794 C.ar   1 <0>       0.3200
22 N22       1.0527     0.4786    -5.2864 N.ar   1 <0>      -0.5400
23 C23       3.6291     1.0114    -2.6786 C.2    1 <0>       0.0800
24 N24       3.4148     1.2876    -1.4203 N.2    1 <0>      -0.2800
25 H25      -0.5451     1.8289    -0.8729 H      1 <0>       0.1200
26 H26      -0.5281     1.8193     0.9069 H      1 <0>       0.1400
27 H27       0.8123     3.9672    -0.6693 H      1 <0>       0.0900
28 H28      -0.2506     3.9801     1.4933 H      1 <0>       0.0800
29 H29       1.1835     3.2566     2.2936 H      1 <0>       0.0800
30 H30       0.8571     6.0939     1.1717 H      1 <0>       0.0700
31 H31       1.4801     5.6003     2.7774 H      1 <0>       0.0700
32 H32       3.1281     6.1714     0.6246 H      1 <0>       0.0600
33 H33       3.5781     5.0345     1.9269 H      1 <0>       0.0600
34 H34       3.5411     3.3067     0.4312 H      1 <0>       0.0700
35 H35       3.0912     4.4437    -0.8710 H      1 <0>       0.0600
36 H36       0.4281     1.7627    -2.6734 H      1 <0>       0.1800
37 H37       5.0883     2.1079    -4.7656 H      1 <0>       0.1600
38 H38       6.0103     2.2681    -7.2000 H      1 <0>       0.1800
39 H39       4.1852     1.4245    -8.7667 H      1 <0>       0.4200
40 H40      -0.0887    -0.0979    -6.9103 H      1 <0>       0.2000
41 H41       4.5731     0.7146    -3.1112 H      1 <0>       0.1900
@<TRIPOS>BOND
1    1    2 3
2    2    3 1
3    3    4 1
4    3   25 1
5    3   26 1
6    4    5 1
7    4    6 1
8    4   11 1
9    6   10 1
10    6    7 1
11    6   27 1
12    7    8 1
13    7   28 1
14    7   29 1
15    8    9 1
16    8   30 1
17    8   31 1
18    9   10 1
19    9   32 1
20    9   33 1
21   10   34 1
22   10   35 1
23   11   24 1
24   11   12 1
25   12   13 2
26   12   36 1
27   13   14 1
28   13   23 1
29   14   22 ar
30   14   15 ar
31   15   19 ar
32   15   16 1
33   16   17 2
34   16   37 1
35   17   18 1
36   17   38 1
37   18   19 1
38   18   39 1
39   19   20 ar
40   20   21 ar
41   21   22 ar
42   21   40 1
43   23   24 2
44   23   41 1
