@<TRIPOS>MOLECULE
ZINC000003787060
31   33    0    0    0
SMALL
USER_CHARGES
NO_NAME
@<TRIPOS>ATOM
1 C1       -0.0187     1.5258     0.0104 C.3    1 <0>      -0.1200
2 C2        0.0021    -0.0041     0.0020 C.3    1 <0>      -0.4800
3 C3        0.6423    -0.5395    -1.2803 C.3    1 <0>       0.1400
4 N4        1.9704     0.0556    -1.4483 N.pl3  1 <0>      -0.3000
5 C5        3.1285    -0.6243    -1.6141 C.2    1 <0>      -0.0600
6 C6        4.1011     0.3100    -1.7291 C.2    1 <0>      -0.0500
7 N7        3.4983     1.5000    -1.6294 N.2    1 <0>      -0.2700
8 N8        2.2354     1.3150    -1.4692 N.2    1 <0>      -0.0600
9 C9       -1.4211    -0.5876     0.2082 C.3    1 <0>       0.0200
10 H10      -1.4372    -1.6280    -0.1167 H      1 <0>       0.0900
11 C11      -2.4114     0.2067    -0.6037 C.2    1 <0>       0.5200
12 O12      -2.6636    -0.1230    -1.7501 O.co2  1 <0>      -0.6800
13 O13      -2.9605     1.1790    -0.1143 O.co2  1 <0>      -0.6500
14 N14      -1.7838    -0.5138     1.6264 N.am   1 <0>      -0.4600
15 C15      -2.2960    -1.6193     2.2132 C.2    1 <0>       0.5000
16 O16      -3.3507    -2.1989     2.0633 O.2    1 <0>      -0.4500
17 C17      -1.1210    -1.8911     3.1143 C.3    1 <0>      -0.1700
18 C18      -0.6466    -0.5548     2.5541 C.3    1 <0>      -0.4100
19 H19      -0.6216     0.2564     3.2817 H      1 <0>       0.1800
20 S20       0.8453    -0.6690     1.4977 S.o2   1 <0>       2.3400
21 O21       1.1868    -2.0329     1.2919 O.2    1 <0>      -0.9200
22 O22       1.8266     0.2548     1.9482 O.2    1 <0>      -0.9100
23 H23       1.0039     1.9031     0.0027 H      1 <0>       0.0900
24 H24      -0.5459     1.8868    -0.8726 H      1 <0>       0.0900
25 H25      -0.5289     1.8773     0.9072 H      1 <0>       0.0800
26 H26       0.7355    -1.6235    -1.2147 H      1 <0>       0.1200
27 H27       0.0170    -0.2796    -2.1345 H      1 <0>       0.1400
28 H28       3.2521    -1.6967    -1.6475 H      1 <0>       0.1900
29 H29       5.1563     0.1301    -1.8728 H      1 <0>       0.1900
30 H30      -1.3563    -1.8755     4.1785 H      1 <0>       0.1300
31 H31      -0.5133    -2.7456     2.8168 H      1 <0>       0.1400
@<TRIPOS>BOND
1    1    2 1
2    1   23 1
3    1   24 1
4    1   25 1
5    2   20 1
6    2    3 1
7    2    9 1
8    3    4 1
9    3   26 1
10    3   27 1
11    4    8 1
12    4    5 1
13    5    6 2
14    5   28 1
15    6    7 1
16    6   29 1
17    7    8 2
18    9   10 1
19    9   11 1
20    9   14 1
21   11   12 ar
22   11   13 ar
23   14   18 1
24   14   15 am
25   15   16 2
26   15   17 1
27   17   18 1
28   17   30 1
29   17   31 1
30   18   19 1
31   18   20 1
32   20   21 2
33   20   22 2
