@<TRIPOS>MOLECULE
ZINC000004097476
28    28    1     0     0
SMALL
USER_CHARGES
@<TRIPOS>ATOM
1      C1     -3.5870   -0.0906   -0.6686 C.3      1 ZINC000004097476   -0.1600
2      C2     -2.6782   -1.2912   -0.6073 C.2      1 ZINC000004097476    0.5000
3      O3     -2.9694   -2.2372    0.0937 O.2      1 ZINC000004097476   -0.4900
4      N4     -1.5418   -1.3138   -1.3316 N.am     1 ZINC000004097476   -0.6800
5      C5     -0.6525   -2.3879   -1.2055 C.ar     1 ZINC000004097476    0.2100
6      C6     -0.2398   -3.0829   -2.3353 C.ar     1 ZINC000004097476   -0.1300
7      I7     -0.9505   -2.5212   -4.2244 I        1 ZINC000004097476   -0.0300
8      C8      0.6430   -4.1487   -2.2164 C.ar     1 ZINC000004097476    0.2100
9      N9      1.0562   -4.8449   -3.3588 N.am     1 ZINC000004097476   -0.6800
10     C10     0.7927   -6.1613   -3.4779 C.2      1 ZINC000004097476    0.5000
11     C11     1.1410   -6.8873   -4.7517 C.3      1 ZINC000004097476   -0.1700
12     O12     0.2753   -6.7616   -2.5598 O.2      1 ZINC000004097476   -0.5000
13     C13     1.1160   -4.5240   -0.9684 C.ar     1 ZINC000004097476   -0.0900
14     I14     2.4479   -6.1313   -0.7910 I        1 ZINC000004097476    0.0300
15     C15     0.7032   -3.8280    0.1711 C.ar     1 ZINC000004097476   -0.0500
16     C16     1.2033   -4.2233    1.5006 C.2      1 ZINC000004097476    0.5000
17     O17     1.9807   -5.1615    1.6074 O.co2    1 ZINC000004097476   -0.6300
18     O18     0.8409   -3.6130    2.4966 O.co2    1 ZINC000004097476   -0.6300
19     C19    -0.1807   -2.7526    0.0460 C.ar     1 ZINC000004097476   -0.0900
20     I20    -0.8046   -1.7039    1.7489 I        1 ZINC000004097476    0.0300
21     H21    -3.2973    0.6240    0.1018 H        1 ZINC000004097476    0.1000
22     H22    -3.5039    0.3783   -1.6490 H        1 ZINC000004097476    0.0800
23     H23    -4.6171   -0.4059   -0.5027 H        1 ZINC000004097476    0.0900
24     H24    -1.3400   -0.5859   -1.9402 H        1 ZINC000004097476    0.4100
25     H25     1.5322   -4.3798   -4.0646 H        1 ZINC000004097476    0.4100
26     H26     2.1542   -7.2827   -4.6792 H        1 ZINC000004097476    0.0900
27     H27     0.4407   -7.7084   -4.9051 H        1 ZINC000004097476    0.0900
28     H28     1.0801   -6.1960   -5.5922 H        1 ZINC000004097476    0.0800
@<TRIPOS>BOND
1     1     2     1
2     1     21    1
3     1     22    1
4     1     23    1
5     2     3     2
6     2     4     am
7     4     5     1
8     4     24    1
9     5     19    ar
10    5     6     ar
11    6     7     1
12    6     8     ar
13    8     9     1
14    8     13    ar
15    9     10    am
16    9     25    1
17    10    11    1
18    10    12    2
19    11    26    1
20    11    27    1
21    11    28    1
22    13    14    1
23    13    15    ar
24    15    16    1
25    15    19    ar
26    16    17    ar
27    16    18    ar
28    19    20    1
@<TRIPOS>SUBSTRUCTURE
1   ZINC000004097476 1     RESIDUE    1   A     ZIN   1
