@<TRIPOS>MOLECULE
ZINC000036520252
58    61    1     0     0
SMALL
USER_CHARGES
@<TRIPOS>ATOM
1      O1     -1.3173    1.0580    1.4099 O.3      1 ZINC000036520252   -0.5700
2      C2     -1.3792   -0.3696    1.4015 C.3      1 ZINC000036520252    0.0900
3      C3     -2.8132   -0.8162    1.1100 C.3      1 ZINC000036520252    0.1000
4      H4     -3.4906   -0.3561    1.8293 H        1 ZINC000036520252    0.0800
5      O5     -3.1778   -0.4149   -0.2122 O.3      1 ZINC000036520252   -0.3400
6      C6     -4.5145   -0.7618   -0.5795 C.3      1 ZINC000036520252    0.1400
7      H7     -5.2143   -0.3012    0.1177 H        1 ZINC000036520252    0.0800
8      C8     -4.7967   -0.2675   -1.9749 C.ar     1 ZINC000036520252   -0.0700
9      C9     -3.8265   -0.3713   -2.9539 C.ar     1 ZINC000036520252   -0.0800
10     C10    -4.0848    0.0816   -4.2342 C.ar     1 ZINC000036520252   -0.1100
11     C11    -5.3146    0.6386   -4.5355 C.ar     1 ZINC000036520252   -0.0200
12     Cl12   -5.6400    1.2070   -6.1432 Cl       1 ZINC000036520252   -0.0600
13     C13    -6.2855    0.7422   -3.5550 C.ar     1 ZINC000036520252   -0.0700
14     C14    -7.6258    1.3484   -3.8825 C.3      1 ZINC000036520252   -0.0400
15     C15    -7.5124    2.8511   -3.8760 C.ar     1 ZINC000036520252   -0.1100
16     C16    -7.7326    3.5548   -2.7064 C.ar     1 ZINC000036520252   -0.0700
17     C17    -7.6293    4.9324   -2.6978 C.ar     1 ZINC000036520252   -0.2100
18     C18    -7.3040    5.6097   -3.8640 C.ar     1 ZINC000036520252    0.1200
19     O19    -7.2013    6.9648   -3.8581 O.3      1 ZINC000036520252   -0.3000
20     C20    -7.3245    7.6192   -2.5937 C.3      1 ZINC000036520252    0.0500
21     H21    -6.8405    7.0377   -1.8091 H        1 ZINC000036520252    0.0900
22     C22    -6.7406    9.0569   -2.6562 C.3      1 ZINC000036520252   -0.1500
23     C23    -7.5805    9.7633   -1.5624 C.3      1 ZINC000036520252    0.0500
24     O24    -8.8916    9.1852   -1.6645 O.3      1 ZINC000036520252   -0.3800
25     C25    -8.8075    7.8772   -2.2508 C.3      1 ZINC000036520252    0.0300
26     C26    -7.0831    4.9013   -5.0362 C.ar     1 ZINC000036520252   -0.1500
27     C27    -7.1829    3.5234   -5.0385 C.ar     1 ZINC000036520252   -0.0700
28     C28    -6.0279    0.2843   -2.2768 C.ar     1 ZINC000036520252   -0.0700
29     C29    -4.6760   -2.2835   -0.5343 C.3      1 ZINC000036520252    0.1000
30     H30    -4.0052   -2.7428   -1.2604 H        1 ZINC000036520252    0.0700
31     O31    -6.0268   -2.6299   -0.8464 O.3      1 ZINC000036520252   -0.5500
32     C32    -4.3294   -2.7844    0.8712 C.3      1 ZINC000036520252    0.0400
33     H33    -5.0312   -2.3641    1.5915 H        1 ZINC000036520252    0.0800
34     O34    -4.4084   -4.2109    0.9033 O.3      1 ZINC000036520252   -0.5600
35     C35    -2.9064   -2.3401    1.2233 C.3      1 ZINC000036520252    0.0500
36     H36    -2.1997   -2.8004    0.5328 H        1 ZINC000036520252    0.0800
37     O37    -2.5980   -2.7408    2.5599 O.3      1 ZINC000036520252   -0.5500
38     H38    -0.4356    1.4124    1.5889 H        1 ZINC000036520252    0.3800
39     H39    -0.7139   -0.7577    0.6303 H        1 ZINC000036520252    0.0600
40     H40    -1.0701   -0.7524    2.3742 H        1 ZINC000036520252    0.0700
41     H41    -2.8662   -0.8059   -2.7185 H        1 ZINC000036520252    0.1300
42     H42    -3.3265    0.0008   -4.9989 H        1 ZINC000036520252    0.1400
43     H43    -7.9452    1.0124   -4.8690 H        1 ZINC000036520252    0.0900
44     H44    -8.3577    1.0360   -3.1377 H        1 ZINC000036520252    0.0900
45     H45    -7.9858    3.0271   -1.7988 H        1 ZINC000036520252    0.1200
46     H46    -7.8020    5.4816   -1.7841 H        1 ZINC000036520252    0.1300
47     H47    -5.6807    9.0618   -2.4021 H        1 ZINC000036520252    0.0900
48     H48    -6.9103    9.5076   -3.6341 H        1 ZINC000036520252    0.0900
49     H49    -7.1574    9.5698   -0.5767 H        1 ZINC000036520252    0.0700
50     H50    -7.6241   10.8357   -1.7525 H        1 ZINC000036520252    0.1000
51     H51    -9.4065    7.8407   -3.1608 H        1 ZINC000036520252    0.0800
52     H52    -9.1644    7.1304   -1.5416 H        1 ZINC000036520252    0.0800
53     H53    -6.8301    5.4263   -5.9455 H        1 ZINC000036520252    0.1300
54     H54    -7.0108    2.9715   -5.9506 H        1 ZINC000036520252    0.1300
55     H55    -6.7857    0.3648   -1.5115 H        1 ZINC000036520252    0.1300
56     H56    -6.2014   -3.5810   -0.8362 H        1 ZINC000036520252    0.3900
57     H57    -4.2007   -4.5970    1.7652 H        1 ZINC000036520252    0.3800
58     H58    -2.6421   -3.6959    2.7042 H        1 ZINC000036520252    0.3800
@<TRIPOS>BOND
1     1     2     1
2     1     38    1
3     2     3     1
4     2     39    1
5     2     40    1
6     3     4     1
7     3     35    1
8     3     5     1
9     5     6     1
10    6     7     1
11    6     8     1
12    6     29    1
13    8     28    ar
14    8     9     ar
15    9     10    ar
16    9     41    1
17    10    11    ar
18    10    42    1
19    11    12    1
20    11    13    ar
21    13    14    1
22    13    28    ar
23    14    15    1
24    14    43    1
25    14    44    1
26    15    27    ar
27    15    16    ar
28    16    17    ar
29    16    45    1
30    17    18    ar
31    17    46    1
32    18    19    1
33    18    26    ar
34    19    20    1
35    20    21    1
36    20    25    1
37    20    22    1
38    22    23    1
39    22    47    1
40    22    48    1
41    23    24    1
42    23    49    1
43    23    50    1
44    24    25    1
45    25    51    1
46    25    52    1
47    26    27    ar
48    26    53    1
49    27    54    1
50    28    55    1
51    29    30    1
52    29    31    1
53    29    32    1
54    31    56    1
55    32    33    1
56    32    34    1
57    32    35    1
58    34    57    1
59    35    36    1
60    35    37    1
61    37    58    1
@<TRIPOS>SUBSTRUCTURE
1   ZINC000036520252 1     RESIDUE    1   A     ZIN   1
