@<TRIPOS>MOLECULE
ZINC000000004949
29    29    1     0     0
SMALL
USER_CHARGES
@<TRIPOS>ATOM
1      N1     -0.8649    2.9308    1.3196 N.4      1 ZINC000000004949   -0.6400
2      H2      0.0209    3.4118    1.3661 H        1 ZINC000000004949    0.4300
3      H3     -1.3867    3.1044    2.1655 H        1 ZINC000000004949    0.4200
4      H4     -1.3892    3.2675    0.5259 H        1 ZINC000000004949    0.4300
5      C5     -0.6315    1.4876    1.1757 C.3      1 ZINC000000004949   -0.0100
6      C6      0.1477    0.9736    2.3879 C.3      1 ZINC000000004949   -0.0500
7      C7      0.2703   -0.5493    2.3071 C.3      1 ZINC000000004949   -0.1800
8      C8      1.0402   -0.9262    1.0677 C.2      1 ZINC000000004949    0.4900
9      O9      1.3726   -0.0651    0.2711 O.co2    1 ZINC000000004949   -0.7000
10     O10     1.3308   -2.0922    0.8615 O.co2    1 ZINC000000004949   -0.6800
11     C11     1.5445    1.5979    2.3985 C.3      1 ZINC000000004949   -0.1300
12     C12     2.3237    1.0839    3.6108 C.3      1 ZINC000000004949   -0.1200
13     C13     1.5834    1.4686    4.8934 C.3      1 ZINC000000004949   -0.1200
14     C14     0.1866    0.8443    4.8828 C.3      1 ZINC000000004949   -0.1200
15     C15    -0.5926    1.3583    3.6705 C.3      1 ZINC000000004949   -0.1300
16     H16    -1.5883    0.9693    1.1123 H        1 ZINC000000004949    0.1200
17     H17    -0.0565    1.3012    0.2686 H        1 ZINC000000004949    0.1700
18     H18     0.7958   -0.9188    3.1877 H        1 ZINC000000004949    0.0800
19     H19    -0.7248   -0.9922    2.2654 H        1 ZINC000000004949    0.0700
20     H20     2.0719    1.3238    1.4848 H        1 ZINC000000004949    0.1200
21     H21     1.4572    2.6828    2.4561 H        1 ZINC000000004949    0.0400
22     H22     2.4110   -0.0011    3.5532 H        1 ZINC000000004949    0.0700
23     H23     3.3188    1.5286    3.6184 H        1 ZINC000000004949    0.0600
24     H24     2.1385    1.1024    5.7570 H        1 ZINC000000004949    0.0600
25     H25     1.4960    2.5536    4.9510 H        1 ZINC000000004949    0.0600
26     H26     0.2739   -0.2406    4.8252 H        1 ZINC000000004949    0.0700
27     H27    -0.3408    1.1184    5.7965 H        1 ZINC000000004949    0.0600
28     H28    -0.6799    2.4433    3.7281 H        1 ZINC000000004949    0.0500
29     H29    -1.5877    0.9136    3.6629 H        1 ZINC000000004949    0.0700
@<TRIPOS>BOND
1     1     2     1
2     1     3     1
3     1     4     1
4     1     5     1
5     5     6     1
6     5     16    1
7     5     17    1
8     6     15    1
9     6     7     1
10    6     11    1
11    7     8     1
12    7     18    1
13    7     19    1
14    8     9     ar
15    8     10    ar
16    11    12    1
17    11    20    1
18    11    21    1
19    12    13    1
20    12    22    1
21    12    23    1
22    13    14    1
23    13    24    1
24    13    25    1
25    14    15    1
26    14    26    1
27    14    27    1
28    15    28    1
29    15    29    1
@<TRIPOS>SUBSTRUCTURE
1   ZINC000000004949 1     RESIDUE    1   A     ZIN   1
