@<TRIPOS>MOLECULE
ZINC000022116612
37    39    1     0     0
SMALL
USER_CHARGES
@<TRIPOS>ATOM
1      O1      0.0660   -0.0039    0.0198 O.3      1 ZINC000022116612   -0.6600
2      C2      0.0322    1.3557    0.0229 C.ar     1 ZINC000022116612    0.2700
3      C3     -1.1800    2.0219    0.0249 C.ar     1 ZINC000022116612   -0.1800
4      Cl4    -2.6561    1.1074    0.0262 Cl       1 ZINC000022116612   -0.0900
5      C5     -1.2264    3.4143    0.0272 C.ar     1 ZINC000022116612   -0.0400
6      C6     -0.0591    4.1359    0.0363 C.ar     1 ZINC000022116612   -0.2200
7      C7      1.1637    3.4658    0.0314 C.ar     1 ZINC000022116612   -0.0800
8      C8      1.2159    2.0859    0.0183 C.ar     1 ZINC000022116612   -0.0200
9      O9      2.4154    1.4447    0.0083 O.3      1 ZINC000022116612   -0.4900
10     C10     0.0073    5.6386    0.0622 C.3      1 ZINC000022116612    0.0100
11     H11     0.8302    5.9109    0.7533 H        1 ZINC000022116612    0.1100
12     C12     0.3843    6.1668   -1.2978 C.ar     1 ZINC000022116612   -0.1200
13     C13     1.0162    7.3914   -1.4118 C.ar     1 ZINC000022116612   -0.1000
14     C14     1.3628    7.8778   -2.6574 C.ar     1 ZINC000022116612   -0.1500
15     C15     1.0768    7.1364   -3.7945 C.ar     1 ZINC000022116612    0.1200
16     O16     1.4172    7.6126   -5.0210 O.3      1 ZINC000022116612   -0.5000
17     C17     0.4431    5.9078   -3.6775 C.ar     1 ZINC000022116612   -0.1400
18     C18     0.1029    5.4236   -2.4293 C.ar     1 ZINC000022116612   -0.0900
19     C19    -1.2626    6.2845    0.5906 C.3      1 ZINC000022116612    0.0000
20     N20    -2.2823    6.4284   -0.4337 N.4      1 ZINC000022116612   -0.4900
21     H21    -3.1145    6.8343    0.0057 H        1 ZINC000022116612    0.4200
22     H22    -2.0049    7.0819   -1.1473 H        1 ZINC000022116612    0.4200
23     C23    -2.6770    5.1554   -1.0327 C.3      1 ZINC000022116612   -0.0100
24     C24    -2.5953    4.0498    0.0166 C.3      1 ZINC000022116612   -0.1100
25     H25     2.0810    4.0367    0.0370 H        1 ZINC000022116612    0.1100
26     H26     2.7652    1.2510    0.8887 H        1 ZINC000022116612    0.3700
27     H27     1.2387    7.9682   -0.5262 H        1 ZINC000022116612    0.1300
28     H28     1.8557    8.8347   -2.7459 H        1 ZINC000022116612    0.1300
29     H29     2.3011    7.3509   -5.3131 H        1 ZINC000022116612    0.4000
30     H30     0.2191    5.3289   -4.5613 H        1 ZINC000022116612    0.1300
31     H31    -0.3901    4.4670   -2.3376 H        1 ZINC000022116612    0.1400
32     H32    -1.6514    5.7086    1.4363 H        1 ZINC000022116612    0.1400
33     H33    -1.0146    7.2863    0.9813 H        1 ZINC000022116612    0.1300
34     H34    -3.7075    5.2295   -1.3946 H        1 ZINC000022116612    0.1300
35     H35    -2.0302    4.9124   -1.8749 H        1 ZINC000022116612    0.1300
36     H36    -3.3418    3.2882   -0.2234 H        1 ZINC000022116612    0.1200
37     H37    -2.8222    4.4534    1.0001 H        1 ZINC000022116612    0.0900
@<TRIPOS>BOND
1     1     2     1
2     2     8     ar
3     2     3     ar
4     3     4     1
5     3     5     ar
6     5     24    1
7     5     6     ar
8     6     7     ar
9     6     10    1
10    7     8     ar
11    7     25    1
12    8     9     1
13    9     26    1
14    10    11    1
15    10    12    1
16    10    19    1
17    12    18    ar
18    12    13    ar
19    13    14    ar
20    13    27    1
21    14    15    ar
22    14    28    1
23    15    16    1
24    15    17    ar
25    16    29    1
26    17    18    ar
27    17    30    1
28    18    31    1
29    19    20    1
30    19    32    1
31    19    33    1
32    20    21    1
33    20    22    1
34    20    23    1
35    23    24    1
36    23    34    1
37    23    35    1
38    24    36    1
39    24    37    1
@<TRIPOS>SUBSTRUCTURE
1   ZINC000022116612 1     RESIDUE    1   A     ZIN   1
