@<TRIPOS>MOLECULE
ZINC000000004785
30   32    0    0    0
SMALL
USER_CHARGES
NO_NAME
@<TRIPOS>ATOM
1 N1       -0.0162     1.3436     0.0094 N.am   1 <0>      -0.8600
2 C2        0.0021    -0.0041     0.0020 C.2    1 <0>       0.7100
3 O3        1.0605    -0.5961    -0.0113 O.2    1 <0>      -0.5600
4 N4       -1.1558    -0.6938     0.0094 N.am   1 <0>      -0.5200
5 C5       -2.3380    -0.0374     0.0186 C.2    1 <0>       0.1400
6 C6       -2.6480     0.7494    -0.9920 C.2    1 <0>      -0.1400
7 C7       -3.9477     1.4406    -1.0191 C.2    1 <0>      -0.1000
8 C8       -4.8029     1.2668    -0.0340 C.2    1 <0>      -0.1100
9 C9       -4.4524     0.3961     1.0996 C.2    1 <0>      -0.0900
10 C10      -3.2800    -0.2089     1.1350 C.2    1 <0>      -0.0600
11 C11      -2.9196    -1.0056     2.3107 C.2    1 <0>      -0.1100
12 C12      -2.2588    -2.1153     2.3048 C.2    1 <0>      -0.0900
13 C13      -1.7356    -2.8020     1.1209 C.2    1 <0>      -0.0600
14 C14      -1.7880    -4.1193     1.0619 C.2    1 <0>      -0.0900
15 C15      -1.2374    -4.8315    -0.1023 C.2    1 <0>      -0.1200
16 C16      -0.6842    -4.1549    -1.0862 C.2    1 <0>      -0.1000
17 C17      -0.6320    -2.6847    -1.0263 C.2    1 <0>      -0.1100
18 C18      -1.1418    -2.0460     0.0020 C.2    1 <0>       0.1600
19 H19       0.8172     1.8399     0.0041 H      1 <0>       0.4200
20 H20      -0.8627     1.8171     0.0160 H      1 <0>       0.4000
21 H21      -1.9471     0.8879    -1.8019 H      1 <0>       0.1300
22 H22      -4.1986     2.0891    -1.8454 H      1 <0>       0.1300
23 H23      -5.7619     1.7628    -0.0576 H      1 <0>       0.1300
24 H24      -5.1568     0.2521     1.9055 H      1 <0>       0.1300
25 H25      -3.2365    -0.6298     3.2723 H      1 <0>       0.1200
26 H26      -2.0743    -2.5803     3.2619 H      1 <0>       0.1200
27 H27      -2.2364    -4.6767     1.8711 H      1 <0>       0.1300
28 H28      -1.2869    -5.9094    -0.1490 H      1 <0>       0.1300
29 H29      -0.2691    -4.6769    -1.9356 H      1 <0>       0.1300
30 H30      -0.1747    -2.1284    -1.8312 H      1 <0>       0.1300
@<TRIPOS>BOND
1    1    2 am
2    1   19 1
3    1   20 1
4    2    3 2
5    2    4 am
6    4   18 1
7    4    5 1
8    5   10 1
9    5    6 2
10    6    7 1
11    6   21 1
12    7    8 2
13    7   22 1
14    8    9 1
15    8   23 1
16    9   10 2
17    9   24 1
18   10   11 1
19   11   12 2
20   11   25 1
21   12   13 1
22   12   26 1
23   13   18 1
24   13   14 2
25   14   15 1
26   14   27 1
27   15   16 2
28   15   28 1
29   16   17 1
30   16   29 1
31   17   18 2
32   17   30 1
