@<TRIPOS>MOLECULE
ZINC000095551509
103   109   1     0     0
SMALL
USER_CHARGES
@<TRIPOS>ATOM
1      C1     -0.4912   -2.0249    2.1549 C.2      1 ZINC000095551509   -0.2100
2      C2     -0.5188   -2.8170    1.1119 C.2      1 ZINC000095551509   -0.1000
3      C3     -1.8339   -3.1593    0.4603 C.3      1 ZINC000095551509   -0.1100
4      H4     -2.7089   -3.0993    1.1076 H        1 ZINC000095551509    0.1100
5      C5     -1.8265   -4.2437   -0.6190 C.3      1 ZINC000095551509   -0.1300
6      C6     -2.0150   -2.7757   -1.0097 C.3      1 ZINC000095551509    0.1300
7      N7     -3.3512   -2.3564   -1.4398 N.am     1 ZINC000095551509   -0.6700
8      C8     -3.8913   -2.8735   -2.5611 C.2      1 ZINC000095551509    0.5200
9      O9     -3.2900   -3.7183   -3.1901 O.2      1 ZINC000095551509   -0.5200
10     C10    -5.2425   -2.4020   -3.0334 C.3      1 ZINC000095551509    0.1200
11     H11    -5.3248   -1.3253   -2.8847 H        1 ZINC000095551509    0.1000
12     C12    -6.3428   -3.1156   -2.2347 C.3      1 ZINC000095551509   -0.1300
13     C13    -7.3097   -3.6622   -3.3085 C.3      1 ZINC000095551509    0.0900
14     H14    -7.6376   -4.6624   -3.0548 H        1 ZINC000095551509    0.1000
15     C15    -6.4936   -3.6779   -4.6160 C.3      1 ZINC000095551509    0.1000
16     N16    -5.3993   -2.7125   -4.4545 N.am     1 ZINC000095551509   -0.5900
17     C17    -4.6553   -2.2034   -5.4558 C.2      1 ZINC000095551509    0.5300
18     O18    -3.8591   -1.3177   -5.2265 O.2      1 ZINC000095551509   -0.4900
19     C19    -4.8081   -2.7299   -6.8582 C.3      1 ZINC000095551509    0.1500
20     H20    -5.5136   -3.5609   -6.8593 H        1 ZINC000095551509    0.1200
21     C21    -3.4505   -3.2131   -7.3722 C.3      1 ZINC000095551509   -0.0700
22     C22    -2.8589   -4.2186   -6.3823 C.3      1 ZINC000095551509   -0.1500
23     C23    -3.6306   -3.8847   -8.7350 C.3      1 ZINC000095551509   -0.1300
24     C24    -2.5042   -2.0191   -7.5131 C.3      1 ZINC000095551509   -0.1500
25     N25    -5.3126   -1.6548   -7.7368 N.am     1 ZINC000095551509   -0.6900
26     C26    -6.4441   -1.9399   -8.4390 C.2      1 ZINC000095551509    0.6500
27     O27    -7.0079   -3.0041   -8.2781 O.2      1 ZINC000095551509   -0.5600
28     O28    -6.9368   -1.0421   -9.3102 O.3      1 ZINC000095551509   -0.3400
29     C29    -8.1929   -1.3854   -9.9585 C.3      1 ZINC000095551509    0.0400
30     H30    -8.3312   -2.4427  -10.1830 H        1 ZINC000095551509    0.1300
31     C31    -8.8012   -0.3703  -10.9241 C.3      1 ZINC000095551509   -0.1500
32     C32    -9.4259   -0.5809   -9.5439 C.3      1 ZINC000095551509   -0.1600
33     H33    -9.2774    0.2002   -8.7967 H        1 ZINC000095551509    0.1100
34     C34   -10.7584   -1.3259   -9.4562 C.3      1 ZINC000095551509   -0.0900
35     C35   -11.3026   -1.2244   -8.0305 C.3      1 ZINC000095551509   -0.1200
36     C36   -11.1307   -2.5641   -7.3121 C.3      1 ZINC000095551509   -0.1200
37     C37   -11.7298   -2.4797   -5.9085 C.3      1 ZINC000095551509   -0.1100
38     C38   -10.6632   -1.9980   -4.9237 C.3      1 ZINC000095551509   -0.0700
39     C39   -10.7859   -2.7647   -3.6327 C.ar     1 ZINC000095551509    0.1100
40     C40    -9.6213   -3.1497   -2.9498 C.ar     1 ZINC000095551509    0.3100
41     N41    -9.6994   -3.8443   -1.8328 N.ar     1 ZINC000095551509   -0.4800
42     C42   -10.9031   -4.1590   -1.3356 C.ar     1 ZINC000095551509    0.1500
43     C43   -11.0221   -4.8962   -0.1469 C.ar     1 ZINC000095551509   -0.1400
44     C44   -12.2621   -5.1787    0.3504 C.ar     1 ZINC000095551509    0.1500
45     O45   -12.3759   -5.8856    1.5048 O.3      1 ZINC000095551509   -0.3100
46     C46   -13.6989   -6.1503    1.9757 C.3      1 ZINC000095551509    0.0200
47     C47   -13.4164   -4.7497   -0.3122 C.ar     1 ZINC000095551509   -0.1800
48     C48   -13.3394   -4.0436   -1.4713 C.ar     1 ZINC000095551509   -0.0300
49     C49   -12.0764   -3.7386   -2.0109 C.ar     1 ZINC000095551509    0.0200
50     N50   -11.9704   -3.0570   -3.1572 N.ar     1 ZINC000095551509   -0.3900
51     O51    -8.4179   -2.7767   -3.4470 O.3      1 ZINC000095551509   -0.2900
52     C52    -0.8646   -2.0849   -1.6955 C.2      1 ZINC000095551509    0.5600
53     O53     0.2618   -2.5180   -1.5746 O.2      1 ZINC000095551509   -0.6200
54     N54    -1.0874   -0.9859   -2.4432 N.pl3    1 ZINC000095551509   -1.1000
55     S55     0.1509   -0.3088   -3.3095 S.o2     1 ZINC000095551509    2.5800
56     O56     0.7746    0.5802   -2.3930 O.2      1 ZINC000095551509   -1.0200
57     O57     0.8540   -1.4218   -3.8443 O.2      1 ZINC000095551509   -1.0100
58     C58    -0.6757    0.6174   -4.6322 C.3      1 ZINC000095551509   -0.6400
59     C59    -0.7000    2.1429   -4.5177 C.3      1 ZINC000095551509   -0.1300
60     C60     0.2012    1.4678   -5.5535 C.3      1 ZINC000095551509   -0.1500
61     H61     0.4513   -1.7796    2.6218 H        1 ZINC000095551509    0.1000
62     H62    -1.4104   -1.6137    2.5453 H        1 ZINC000095551509    0.0900
63     H63     0.4008   -3.2246    0.7188 H        1 ZINC000095551509    0.1200
64     H64    -0.8704   -4.7095   -0.8578 H        1 ZINC000095551509    0.1100
65     H65    -2.6968   -4.8969   -0.6820 H        1 ZINC000095551509    0.1000
66     H66    -3.8472   -1.7067   -0.9176 H        1 ZINC000095551509    0.4000
67     H67    -5.9199   -3.9338   -1.6517 H        1 ZINC000095551509    0.1000
68     H68    -6.8578   -2.4103   -1.5825 H        1 ZINC000095551509    0.1000
69     H69    -6.0868   -4.6744   -4.7877 H        1 ZINC000095551509    0.0900
70     H70    -7.1275   -3.3845   -5.4528 H        1 ZINC000095551509    0.1000
71     H71    -3.5053   -5.0943   -6.3239 H        1 ZINC000095551509    0.0500
72     H72    -1.8675   -4.5207   -6.7201 H        1 ZINC000095551509    0.0600
73     H73    -2.7823   -3.7572   -5.3978 H        1 ZINC000095551509    0.0900
74     H74    -4.0521   -3.1683   -9.4402 H        1 ZINC000095551509    0.0500
75     H75    -2.6634   -4.2289   -9.1012 H        1 ZINC000095551509    0.0600
76     H76    -4.3048   -4.7353   -8.6346 H        1 ZINC000095551509    0.0600
77     H77    -2.3084   -1.5925   -6.5293 H        1 ZINC000095551509    0.0900
78     H78    -1.5661   -2.3496   -7.9591 H        1 ZINC000095551509    0.0600
79     H79    -2.9639   -1.2645   -8.1514 H        1 ZINC000095551509    0.0500
80     H80    -4.8650   -0.7973   -7.8089 H        1 ZINC000095551509    0.4200
81     H81    -8.2523    0.5563  -11.0919 H        1 ZINC000095551509    0.1100
82     H82    -9.3435   -0.7583  -11.7864 H        1 ZINC000095551509    0.1100
83     H83   -11.4708   -0.8797  -10.1501 H        1 ZINC000095551509    0.0700
84     H84   -10.6067   -2.3740   -9.7140 H        1 ZINC000095551509    0.0700
85     H85   -10.7581   -0.4507   -7.4893 H        1 ZINC000095551509    0.0600
86     H86   -12.3606   -0.9648   -8.0644 H        1 ZINC000095551509    0.0600
87     H87   -11.6390   -3.3458   -7.8766 H        1 ZINC000095551509    0.0600
88     H88   -10.0696   -2.8027   -7.2395 H        1 ZINC000095551509    0.0700
89     H89   -12.5642   -1.7784   -5.9115 H        1 ZINC000095551509    0.0700
90     H90   -12.0850   -3.4647   -5.6056 H        1 ZINC000095551509    0.0700
91     H91    -9.6739   -2.1622   -5.3509 H        1 ZINC000095551509    0.0900
92     H92   -10.8024   -0.9346   -4.7291 H        1 ZINC000095551509    0.0900
93     H93   -10.1382   -5.2382    0.3711 H        1 ZINC000095551509    0.1500
94     H94   -14.2153   -5.2078    2.1574 H        1 ZINC000095551509    0.0600
95     H95   -14.2434   -6.7243    1.2259 H        1 ZINC000095551509    0.0600
96     H96   -13.6471   -6.7209    2.9030 H        1 ZINC000095551509    0.1000
97     H97   -14.3853   -4.9836    0.1036 H        1 ZINC000095551509    0.1400
98     H98   -14.2392   -3.7198   -1.9732 H        1 ZINC000095551509    0.1500
99     H99    -1.5460    0.1315   -5.0733 H        1 ZINC000095551509    0.1600
100    H100   -1.5866    2.6610   -4.8833 H        1 ZINC000095551509    0.1000
101    H101   -0.2194    2.5900   -3.6475 H        1 ZINC000095551509    0.1100
102    H102    1.2747    1.4708   -5.3648 H        1 ZINC000095551509    0.0900
103    H103   -0.0925    1.5417   -6.6006 H        1 ZINC000095551509    0.1000
@<TRIPOS>BOND
1     1     2     2
2     1     61    1
3     1     62    1
4     2     3     1
5     2     63    1
6     3     4     1
7     3     6     1
8     3     5     1
9     5     6     1
10    5     64    1
11    5     65    1
12    6     7     1
13    6     52    1
14    7     8     am
15    7     66    1
16    8     9     2
17    8     10    1
18    10    11    1
19    10    16    1
20    10    12    1
21    12    13    1
22    12    67    1
23    12    68    1
24    13    14    1
25    13    51    1
26    13    15    1
27    15    16    1
28    15    69    1
29    15    70    1
30    16    17    am
31    17    18    2
32    17    19    1
33    19    20    1
34    19    21    1
35    19    25    1
36    21    22    1
37    21    23    1
38    21    24    1
39    22    71    1
40    22    72    1
41    22    73    1
42    23    74    1
43    23    75    1
44    23    76    1
45    24    77    1
46    24    78    1
47    24    79    1
48    25    26    am
49    25    80    1
50    26    27    2
51    26    28    1
52    28    29    1
53    29    30    1
54    29    32    1
55    29    31    1
56    31    32    1
57    31    81    1
58    31    82    1
59    32    33    1
60    32    34    1
61    34    35    1
62    34    83    1
63    34    84    1
64    35    36    1
65    35    85    1
66    35    86    1
67    36    37    1
68    36    87    1
69    36    88    1
70    37    38    1
71    37    89    1
72    37    90    1
73    38    39    1
74    38    91    1
75    38    92    1
76    39    50    ar
77    39    40    ar
78    40    41    ar
79    40    51    1
80    41    42    ar
81    42    49    ar
82    42    43    ar
83    43    44    ar
84    43    93    1
85    44    45    1
86    44    47    ar
87    45    46    1
88    46    94    1
89    46    95    1
90    46    96    1
91    47    48    ar
92    47    97    1
93    48    49    ar
94    48    98    1
95    49    50    ar
96    52    53    2
97    52    54    1
98    54    55    1
99    55    56    2
100   55    57    2
101   55    58    1
102   58    60    1
103   58    59    1
104   58    99    1
105   59    60    1
106   59    100   1
107   59    101   1
108   60    102   1
109   60    103   1
@<TRIPOS>SUBSTRUCTURE
1   ZINC000095551509 1     RESIDUE    1   A     ZIN   1
