@<TRIPOS>MOLECULE
ZINC000004175630
63   67    0    0    0
SMALL
USER_CHARGES
NO_NAME
@<TRIPOS>ATOM
1 O1       -1.0217    -2.0345    -3.2674 O.2    1 <0>      -0.5500
2 C2       -1.3244    -0.8661    -3.4228 C.2    1 <0>       0.6800
3 N3       -2.5080    -0.4276    -3.8913 N.am   1 <0>      -0.6500
4 C4       -2.4777     0.9645    -3.9259 C.ar   1 <0>       0.0900
5 C5       -3.3979     1.9269    -4.3113 C.ar   1 <0>      -0.1000
6 C6       -3.0677     3.2658    -4.2295 C.ar   1 <0>      -0.1100
7 C7       -1.8221     3.6503    -3.7649 C.ar   1 <0>      -0.1100
8 C8       -0.8982     2.6985    -3.3790 C.ar   1 <0>      -0.1100
9 C9       -1.2207     1.3526    -3.4566 C.ar   1 <0>       0.0900
10 N10      -0.5287     0.1843    -3.1466 N.am   1 <0>      -0.5300
11 C11       0.8341     0.1108    -2.6139 C.3    1 <0>       0.1700
12 C12       0.8160    -0.6015    -1.2586 C.3    1 <0>      -0.1300
13 C13       2.2486    -0.7294    -0.7358 C.3    1 <0>       0.0600
14 N14       3.0561    -1.4900    -1.6980 N.3    1 <0>      -0.5400
15 C15       4.4003    -1.7517    -1.1665 C.3    1 <0>       0.0600
16 C16       5.2863    -2.3193    -2.2772 C.3    1 <0>      -0.1200
17 C17       6.6864    -2.5918    -1.7237 C.3    1 <0>      -0.1100
18 C18       7.5724    -3.1595    -2.8344 C.3    1 <0>      -0.0100
19 C19       7.7634    -2.1177    -3.9064 C.ar   1 <0>      -0.0800
20 C20       7.4924    -2.4272    -5.2263 C.ar   1 <0>      -0.0800
21 C21       7.6671    -1.4726    -6.2103 C.ar   1 <0>      -0.1500
22 C22       8.1134    -0.2059    -5.8737 C.ar   1 <0>       0.1000
23 F23       8.2841     0.7282    -6.8348 F      1 <0>      -0.1400
24 C24       8.3840     0.1030    -4.5514 C.ar   1 <0>      -0.1500
25 C25       8.2039    -0.8516    -3.5686 C.ar   1 <0>      -0.0900
26 C26       8.9127    -3.5423    -2.2615 C.ar   1 <0>      -0.0800
27 C27       9.6290    -2.6293    -1.5103 C.ar   1 <0>      -0.0900
28 C28      10.8582    -2.9793    -0.9844 C.ar   1 <0>      -0.1500
29 C29      11.3720    -4.2451    -1.2100 C.ar   1 <0>       0.1000
30 F30      12.5733    -4.5884    -0.6961 F      1 <0>      -0.1400
31 C31      10.6535    -5.1588    -1.9622 C.ar   1 <0>      -0.1500
32 C32       9.4223    -4.8082    -2.4830 C.ar   1 <0>      -0.0800
33 C33       3.1271    -0.8015    -2.9931 C.3    1 <0>       0.0600
34 C34       1.7207    -0.6759    -3.5833 C.3    1 <0>      -0.1300
35 H35      -3.2544    -0.9860    -4.1597 H      1 <0>       0.4300
36 H36      -4.3707     1.6306    -4.6750 H      1 <0>       0.1300
37 H37      -3.7846     4.0157    -4.5297 H      1 <0>       0.1300
38 H38      -1.5710     4.6990    -3.7041 H      1 <0>       0.1300
39 H39       0.0731     3.0023    -3.0176 H      1 <0>       0.1300
40 H40       1.2322     1.1181    -2.4918 H      1 <0>       0.0900
41 H41       0.2208    -0.0236    -0.5516 H      1 <0>       0.0700
42 H42       0.3811    -1.5943    -1.3750 H      1 <0>       0.0900
43 H43       2.6780     0.2641    -0.6066 H      1 <0>       0.0400
44 H44       2.2405    -1.2489     0.2224 H      1 <0>       0.0800
45 H45       4.8322    -0.8217    -0.7968 H      1 <0>       0.0300
46 H46       4.3347    -2.4714    -0.3506 H      1 <0>       0.0800
47 H47       4.8544    -3.2493    -2.6469 H      1 <0>       0.0700
48 H48       5.3520    -1.5996    -3.0932 H      1 <0>       0.0700
49 H49       7.1183    -1.6618    -1.3540 H      1 <0>       0.0700
50 H50       6.6208    -3.3115    -0.9077 H      1 <0>       0.0700
51 H51       7.0961    -4.0405    -3.2646 H      1 <0>       0.0900
52 H52       7.1444    -3.4153    -5.4885 H      1 <0>       0.1300
53 H53       7.4561    -1.7148    -7.2414 H      1 <0>       0.1400
54 H54       8.7324     1.0907    -4.2878 H      1 <0>       0.1300
55 H55       8.4146    -0.6108    -2.5371 H      1 <0>       0.1300
56 H56       9.2280    -1.6420    -1.3345 H      1 <0>       0.1300
57 H57      11.4179    -2.2656    -0.3982 H      1 <0>       0.1400
58 H58      11.0534    -6.1463    -2.1390 H      1 <0>       0.1400
59 H59       8.8615    -5.5209    -3.0694 H      1 <0>       0.1300
60 H60       3.5524     0.1923    -2.8533 H      1 <0>       0.0300
61 H61       3.7570    -1.3734    -3.6744 H      1 <0>       0.0900
62 H62       1.3001    -1.6697    -3.7363 H      1 <0>       0.0900
63 H63       1.7719    -0.1510    -4.5372 H      1 <0>       0.0700
@<TRIPOS>BOND
1    1    2 2
2    2   10 am
3    2    3 am
4    3    4 1
5    3   35 1
6    4    9 ar
7    4    5 ar
8    5    6 ar
9    5   36 1
10    6    7 ar
11    6   37 1
12    7    8 ar
13    7   38 1
14    8    9 ar
15    8   39 1
16    9   10 1
17   10   11 1
18   11   34 1
19   11   12 1
20   11   40 1
21   12   13 1
22   12   41 1
23   12   42 1
24   13   14 1
25   13   43 1
26   13   44 1
27   14   15 1
28   14   33 1
29   15   16 1
30   15   45 1
31   15   46 1
32   16   17 1
33   16   47 1
34   16   48 1
35   17   18 1
36   17   49 1
37   17   50 1
38   18   19 1
39   18   26 1
40   18   51 1
41   19   25 ar
42   19   20 ar
43   20   21 ar
44   20   52 1
45   21   22 ar
46   21   53 1
47   22   23 1
48   22   24 ar
49   24   25 ar
50   24   54 1
51   25   55 1
52   26   32 ar
53   26   27 ar
54   27   28 ar
55   27   56 1
56   28   29 ar
57   28   57 1
58   29   30 1
59   29   31 ar
60   31   32 ar
61   31   58 1
62   32   59 1
63   33   34 1
64   33   60 1
65   33   61 1
66   34   62 1
67   34   63 1
