@<TRIPOS>MOLECULE
ZINC000006920384
69   68    0    0    0
SMALL
USER_CHARGES
NO_NAME
@<TRIPOS>ATOM
1 C1       -0.0187     1.5258     0.0104 C.3    1 <0>      -0.1500
2 C2        0.0021    -0.0041     0.0020 C.3    1 <0>      -0.1300
3 C3       -1.4333    -0.5336     0.0129 C.3    1 <0>      -0.1200
4 C4       -1.4126    -2.0635     0.0045 C.3    1 <0>      -0.1200
5 C5       -2.8479    -2.5931     0.0153 C.3    1 <0>      -0.1200
6 C6       -2.8272    -4.1229     0.0069 C.3    1 <0>      -0.1200
7 C7       -4.2626    -4.6525     0.0178 C.3    1 <0>      -0.1200
8 C8       -4.2418    -6.1823     0.0094 C.3    1 <0>      -0.1200
9 C9       -5.6772    -6.7119     0.0202 C.3    1 <0>      -0.1200
10 C10      -5.6565    -8.2417     0.0118 C.3    1 <0>      -0.1200
11 C11      -7.0918    -8.7713     0.0227 C.3    1 <0>      -0.1200
12 C12      -7.0711   -10.3012     0.0143 C.3    1 <0>      -0.1200
13 C13      -8.5065   -10.8307     0.0251 C.3    1 <0>      -0.1200
14 C14      -8.4857   -12.3606     0.0167 C.3    1 <0>      -0.1200
15 C15      -9.9211   -12.8902     0.0276 C.3    1 <0>      -0.1200
16 C16      -9.9004   -14.4200     0.0191 C.3    1 <0>      -0.1200
17 C17     -11.3358   -14.9496     0.0300 C.3    1 <0>      -0.1200
18 C18     -11.3150   -16.4794     0.0216 C.3    1 <0>      -0.1200
19 C19     -12.7504   -17.0090     0.0325 C.3    1 <0>      -0.1200
20 C20     -12.7296   -18.5388     0.0240 C.3    1 <0>      -0.1200
21 C21     -14.1650   -19.0684     0.0349 C.3    1 <0>      -0.1200
22 C22     -14.1443   -20.5982     0.0265 C.3    1 <0>       0.0700
23 O23     -15.4849   -21.0929     0.0366 O.3    1 <0>      -0.5800
24 H24       1.0039     1.9031     0.0027 H      1 <0>       0.0500
25 H25      -0.5459     1.8868    -0.8726 H      1 <0>       0.0500
26 H26      -0.5289     1.8773     0.9072 H      1 <0>       0.0500
27 H27       0.5123    -0.3556    -0.8948 H      1 <0>       0.0600
28 H28       0.5293    -0.3651     0.8851 H      1 <0>       0.0600
29 H29      -1.9435    -0.1821     0.9097 H      1 <0>       0.0600
30 H30      -1.9605    -0.1726    -0.8702 H      1 <0>       0.0600
31 H31      -0.9024    -2.4150    -0.8923 H      1 <0>       0.0600
32 H32      -0.8854    -2.4246     0.8875 H      1 <0>       0.0600
33 H33      -3.3581    -2.2415     0.9121 H      1 <0>       0.0600
34 H34      -3.3751    -2.2320    -0.8677 H      1 <0>       0.0600
35 H35      -2.3170    -4.4744    -0.8899 H      1 <0>       0.0600
36 H36      -2.3000    -4.4840     0.8900 H      1 <0>       0.0600
37 H37      -4.7728    -4.3010     0.9146 H      1 <0>       0.0600
38 H38      -4.7898    -4.2914    -0.8653 H      1 <0>       0.0600
39 H39      -3.7316    -6.5338    -0.8874 H      1 <0>       0.0600
40 H40      -3.7146    -6.5434     0.8924 H      1 <0>       0.0600
41 H41      -6.1874    -6.3604     0.9170 H      1 <0>       0.0600
42 H42      -6.2044    -6.3508    -0.8628 H      1 <0>       0.0600
43 H43      -5.1463    -8.5933    -0.8850 H      1 <0>       0.0600
44 H44      -5.1293    -8.6028     0.8949 H      1 <0>       0.0600
45 H45      -7.6020    -8.4198     0.9195 H      1 <0>       0.0600
46 H46      -7.6190    -8.4102    -0.8604 H      1 <0>       0.0600
47 H47      -6.5609   -10.6527    -0.8825 H      1 <0>       0.0600
48 H48      -6.5439   -10.6622     0.8973 H      1 <0>       0.0600
49 H49      -9.0167   -10.4792     0.9219 H      1 <0>       0.0600
50 H50      -9.0337   -10.4697    -0.8579 H      1 <0>       0.0600
51 H51      -7.9755   -12.7121    -0.8801 H      1 <0>       0.0600
52 H52      -7.9586   -12.7217     0.8998 H      1 <0>       0.0600
53 H53     -10.4313   -12.5386     0.9244 H      1 <0>       0.0600
54 H54     -10.4483   -12.5291    -0.8555 H      1 <0>       0.0600
55 H55      -9.3902   -14.7715    -0.8776 H      1 <0>       0.0600
56 H56      -9.3732   -14.7811     0.9022 H      1 <0>       0.0600
57 H57     -11.8459   -14.5981     0.9268 H      1 <0>       0.0600
58 H58     -11.8629   -14.5885    -0.8531 H      1 <0>       0.0600
59 H59     -10.8048   -16.8309    -0.8752 H      1 <0>       0.0600
60 H60     -10.7878   -16.8405     0.9047 H      1 <0>       0.0600
61 H61     -13.2606   -16.6575     0.9292 H      1 <0>       0.0600
62 H62     -13.2776   -16.6479    -0.8506 H      1 <0>       0.0600
63 H63     -12.2195   -18.8903    -0.8727 H      1 <0>       0.0600
64 H64     -12.2025   -18.8999     0.9071 H      1 <0>       0.0600
65 H65     -14.6752   -18.7169     0.9317 H      1 <0>       0.0700
66 H66     -14.6922   -18.7073    -0.8482 H      1 <0>       0.0700
67 H67     -13.6341   -20.9498    -0.8703 H      1 <0>       0.0400
68 H68     -13.6171   -20.9593     0.9096 H      1 <0>       0.0400
69 H69     -15.5482   -22.0578     0.0321 H      1 <0>       0.3800
@<TRIPOS>BOND
1    1    2 1
2    1   24 1
3    1   25 1
4    1   26 1
5    2    3 1
6    2   27 1
7    2   28 1
8    3    4 1
9    3   29 1
10    3   30 1
11    4    5 1
12    4   31 1
13    4   32 1
14    5    6 1
15    5   33 1
16    5   34 1
17    6    7 1
18    6   35 1
19    6   36 1
20    7    8 1
21    7   37 1
22    7   38 1
23    8    9 1
24    8   39 1
25    8   40 1
26    9   10 1
27    9   41 1
28    9   42 1
29   10   11 1
30   10   43 1
31   10   44 1
32   11   12 1
33   11   45 1
34   11   46 1
35   12   13 1
36   12   47 1
37   12   48 1
38   13   14 1
39   13   49 1
40   13   50 1
41   14   15 1
42   14   51 1
43   14   52 1
44   15   16 1
45   15   53 1
46   15   54 1
47   16   17 1
48   16   55 1
49   16   56 1
50   17   18 1
51   17   57 1
52   17   58 1
53   18   19 1
54   18   59 1
55   18   60 1
56   19   20 1
57   19   61 1
58   19   62 1
59   20   21 1
60   20   63 1
61   20   64 1
62   21   22 1
63   21   65 1
64   21   66 1
65   22   23 1
66   22   67 1
67   22   68 1
68   23   69 1
