@<TRIPOS>MOLECULE
ZINC000004097225
37    38    1     0     0
SMALL
USER_CHARGES
@<TRIPOS>ATOM
1      C1     -0.0935    1.5924   -0.2079 C.3      1 ZINC000004097225   -0.1900
2      C2     -0.0460    0.0666   -0.1044 C.3      1 ZINC000004097225    0.1200
3      H3      0.4955   -0.3389   -0.9590 H        1 ZINC000004097225    0.1100
4      O4      0.6199   -0.3084    1.1030 O.3      1 ZINC000004097225   -0.5500
5      C5     -1.4718   -0.4884   -0.0940 C.3      1 ZINC000004097225   -0.1900
6      H6     -2.1140    0.0052    0.6354 H        1 ZINC000004097225    0.1200
7      C7     -2.0908   -0.6022   -1.4719 C.2      1 ZINC000004097225    0.5200
8      O8     -2.3801    0.1983   -2.3364 O.2      1 ZINC000004097225   -0.4200
9      N9     -2.1950   -1.9560   -1.3597 N.am     1 ZINC000004097225   -0.4800
10     C10    -3.4785   -2.5178   -1.2547 C.2      1 ZINC000004097225    0.1600
11     C11    -4.3493   -2.6841   -2.3511 C.2      1 ZINC000004097225    0.4400
12     O12    -5.5094   -3.3206   -2.1903 O.co2    1 ZINC000004097225   -0.6500
13     O13    -4.0124   -2.2048   -3.5485 O.co2    1 ZINC000004097225   -0.6600
14     C14    -3.7892   -2.8814    0.0076 C.2      1 ZINC000004097225   -0.2300
15     S15    -5.3147   -3.5967    0.5231 S.3      1 ZINC000004097225    0.0200
16     C16    -5.9355   -2.2758    1.5935 C.3      1 ZINC000004097225   -0.1700
17     C17    -7.2296   -2.7330    2.2696 C.3      1 ZINC000004097225    0.1100
18     N18    -7.7320   -1.6638    3.1360 N.pl3    1 ZINC000004097225   -0.6600
19     C19    -8.8875   -1.8461    3.8492 C.cat    1 ZINC000004097225    0.5100
20     N20    -9.3311   -0.9023    4.6140 N.pl3    1 ZINC000004097225   -0.7400
21     H21   -10.1492   -1.0314    5.1189 H        1 ZINC000004097225    0.4500
22     H22    -8.8456   -0.0653    4.6827 H        1 ZINC000004097225    0.4300
23     C23    -2.6133   -2.5745    0.9060 C.3      1 ZINC000004097225   -0.0800
24     C24    -1.5367   -2.0203   -0.0360 C.3      1 ZINC000004097225    0.0700
25     H25    -0.5818   -2.5445    0.0033 H        1 ZINC000004097225    0.1400
26     H26     0.9222    1.9878   -0.2153 H        1 ZINC000004097225    0.0700
27     H27    -0.6015    1.8784   -1.1289 H        1 ZINC000004097225    0.0800
28     H28    -0.6350    1.9979    0.6467 H        1 ZINC000004097225    0.0600
29     H29     0.1922    0.0189    1.9061 H        1 ZINC000004097225    0.3700
30     H30    -5.1902   -2.0443    2.3544 H        1 ZINC000004097225    0.0900
31     H31    -6.1327   -1.3860    0.9956 H        1 ZINC000004097225    0.0900
32     H32    -7.9749   -2.9645    1.5087 H        1 ZINC000004097225    0.1100
33     H33    -7.0324   -3.6228    2.8676 H        1 ZINC000004097225    0.1100
34     H34    -7.2466   -0.8269    3.2048 H        1 ZINC000004097225    0.4200
35     H35    -9.4280   -2.7780    3.7726 H        1 ZINC000004097225    0.2300
36     H36    -2.8882   -1.8261    1.6493 H        1 ZINC000004097225    0.0800
37     H37    -2.2601   -3.4833    1.3932 H        1 ZINC000004097225    0.1000
@<TRIPOS>BOND
1     1     2     1
2     1     26    1
3     1     27    1
4     1     28    1
5     2     3     1
6     2     4     1
7     2     5     1
8     4     29    1
9     5     6     1
10    5     24    1
11    5     7     1
12    7     8     2
13    7     9     am
14    9     24    1
15    9     10    1
16    10    11    1
17    10    14    2
18    11    12    ar
19    11    13    ar
20    14    15    1
21    14    23    1
22    15    16    1
23    16    17    1
24    16    30    1
25    16    31    1
26    17    18    1
27    17    32    1
28    17    33    1
29    18    19    ar
30    18    34    1
31    19    20    ar
32    19    35    1
33    20    21    1
34    20    22    1
35    23    24    1
36    23    36    1
37    23    37    1
38    24    25    1
@<TRIPOS>SUBSTRUCTURE
1   ZINC000004097225 1     RESIDUE    1   A     ZIN   1
