@<TRIPOS>MOLECULE
ZINC000003830999
34    35    1     0     0
SMALL
USER_CHARGES
@<TRIPOS>ATOM
1      N1     -0.0116    1.0048    0.0076 N.4      1 ZINC000003830999   -0.6200
2      H2      0.0021   -0.0041    0.0020 H        1 ZINC000003830999    0.4300
3      H3      0.9350    1.3541    0.0004 H        1 ZINC000003830999    0.4300
4      H4     -0.4996    1.3391   -0.8099 H        1 ZINC000003830999    0.4100
5      C5     -0.6992    1.4786    1.2162 C.3      1 ZINC000003830999   -0.0500
6      H6     -0.7140    2.5685    1.2222 H        1 ZINC000003830999    0.1400
7      C7     -2.1346    0.9490    1.2270 C.3      1 ZINC000003830999   -0.0800
8      C8     -2.8990    1.5459    0.0736 C.ar     1 ZINC000003830999   -0.1200
9      C9     -3.5774    2.7393    0.2393 C.ar     1 ZINC000003830999   -0.0500
10     C10    -4.2792    3.2890   -0.8167 C.ar     1 ZINC000003830999   -0.1100
11     I11    -5.3068    5.0972   -0.5646 I        1 ZINC000003830999    0.0000
12     C12    -4.3023    2.6423   -2.0445 C.ar     1 ZINC000003830999    0.1900
13     O13    -4.9912    3.1808   -3.0848 O.3      1 ZINC000003830999   -0.2600
14     C14    -4.3339    4.0382   -3.9102 C.ar     1 ZINC000003830999   -0.0300
15     C15    -2.9984    4.3347   -3.6809 C.ar     1 ZINC000003830999   -0.1100
16     C16    -2.3302    5.2059   -4.5196 C.ar     1 ZINC000003830999   -0.2300
17     C17    -2.9944    5.7837   -5.5909 C.ar     1 ZINC000003830999    0.2800
18     O18    -2.3365    6.6412   -6.4163 O.3      1 ZINC000003830999   -0.7000
19     C19    -4.3303    5.4865   -5.8212 C.ar     1 ZINC000003830999   -0.2100
20     I20    -5.3336    6.3589   -7.4403 I        1 ZINC000003830999   -0.0800
21     C21    -4.9972    4.6121   -4.9852 C.ar     1 ZINC000003830999   -0.0300
22     C22    -3.6200    1.4448   -2.2080 C.ar     1 ZINC000003830999   -0.1200
23     I23    -3.6509    0.4648   -4.0595 I        1 ZINC000003830999    0.0000
24     C24    -2.9159    0.9021   -1.1499 C.ar     1 ZINC000003830999   -0.0800
25     C25     0.0297    0.9794    2.4371 C.2      1 ZINC000003830999    0.4900
26     O26    -0.2657    1.4060    3.5403 O.co2    1 ZINC000003830999   -0.6300
27     O27     0.9147    0.1488    2.3216 O.co2    1 ZINC000003830999   -0.6700
28     H28    -2.1220   -0.1367    1.1315 H        1 ZINC000003830999    0.1000
29     H29    -2.6169    1.2257    2.1646 H        1 ZINC000003830999    0.1200
30     H30    -3.5591    3.2421    1.1949 H        1 ZINC000003830999    0.1500
31     H31    -2.4810    3.8848   -2.8465 H        1 ZINC000003830999    0.0900
32     H32    -1.2906    5.4372   -4.3404 H        1 ZINC000003830999    0.1000
33     H33    -6.0368    4.3804   -5.1644 H        1 ZINC000003830999    0.1100
34     H34    -2.3848   -0.0297   -1.2766 H        1 ZINC000003830999    0.1400
@<TRIPOS>BOND
1     1     2     1
2     1     3     1
3     1     4     1
4     1     5     1
5     5     6     1
6     5     7     1
7     5     25    1
8     7     8     1
9     7     28    1
10    7     29    1
11    8     24    ar
12    8     9     ar
13    9     10    ar
14    9     30    1
15    10    11    1
16    10    12    ar
17    12    13    1
18    12    22    ar
19    13    14    1
20    14    21    ar
21    14    15    ar
22    15    16    ar
23    15    31    1
24    16    17    ar
25    16    32    1
26    17    18    1
27    17    19    ar
28    19    20    1
29    19    21    ar
30    21    33    1
31    22    23    1
32    22    24    ar
33    24    34    1
34    25    26    ar
35    25    27    ar
@<TRIPOS>SUBSTRUCTURE
1   ZINC000003830999 1     RESIDUE    1   A     ZIN   1
