@<TRIPOS>MOLECULE
ZINC000000119344
23   23    0    0    0
SMALL
USER_CHARGES
NO_NAME
@<TRIPOS>ATOM
1 N1       -0.0168     1.3862     0.0097 N.pl3  1 <0>      -0.8700
2 C2        0.0021    -0.0041     0.0020 C.ar   1 <0>       0.2300
3 C3       -1.1949    -0.7150     0.0039 C.ar   1 <0>      -0.2100
4 C4       -1.1796    -2.0910    -0.0037 C.ar   1 <0>      -0.0100
5 C5        0.0396    -2.7749    -0.0132 C.ar   1 <0>      -0.1900
6 C6        0.0596    -4.2500    -0.0218 C.2    1 <0>       0.5500
7 O7       -0.9851    -4.8722    -0.0206 O.2    1 <0>      -0.5700
8 N8        1.2359    -4.9079    -0.0310 N.am   1 <0>      -0.7000
9 C9        1.2557    -6.3727    -0.0396 C.3    1 <0>       0.0500
10 C10       2.6832    -6.8557    -0.0489 C.2    1 <0>       0.4900
11 O11       3.5991    -6.0509    -0.0485 O.co2  1 <0>      -0.6900
12 O12       2.9222    -8.0513    -0.0569 O.co2  1 <0>      -0.6900
13 C13       1.2399    -2.0581    -0.0151 C.ar   1 <0>      -0.0300
14 C14       1.2179    -0.6822    -0.0132 C.ar   1 <0>      -0.2100
15 H15       0.8166     1.8826     0.0044 H      1 <0>       0.4000
16 H16      -0.8633     1.8597     0.0163 H      1 <0>       0.4000
17 H17      -2.1365    -0.1861     0.0116 H      1 <0>       0.1200
18 H18      -2.1085    -2.6420    -0.0019 H      1 <0>       0.1300
19 H19       2.0692    -4.4116    -0.0320 H      1 <0>       0.4100
20 H20       0.7510    -6.7482     0.8506 H      1 <0>       0.0700
21 H21       0.7428    -6.7379    -0.9293 H      1 <0>       0.0700
22 H22       2.1833    -2.5837    -0.0221 H      1 <0>       0.1300
23 H23       2.1447    -0.1279    -0.0150 H      1 <0>       0.1200
@<TRIPOS>BOND
1    1    2 1
2    1   15 1
3    1   16 1
4    2   14 ar
5    2    3 ar
6    3    4 ar
7    3   17 1
8    4    5 ar
9    4   18 1
10    5    6 1
11    5   13 ar
12    6    7 2
13    6    8 am
14    8    9 1
15    8   19 1
16    9   10 1
17    9   20 1
18    9   21 1
19   10   11 ar
20   10   12 ar
21   13   14 ar
22   13   22 1
23   14   23 1
