@<TRIPOS>MOLECULE
ZINC000006467621
28   30    0    0    0
SMALL
USER_CHARGES
NO_NAME
@<TRIPOS>ATOM
1 O1        0.0021    -0.0041     0.0020 O.co2  1 <0>      -1.0600
2 S2       -0.0177     1.4504     0.0100 S.o2   1 <0>       2.7000
3 O3        1.3231     2.0147     0.0002 O.co2  1 <0>      -1.0600
4 O4       -0.8452     1.9911    -1.0572 O.co2  1 <0>      -1.0600
5 C5       -0.7639     1.9401     1.5293 C.ar   1 <0>      -0.6600
6 C6       -0.3986     3.1424     2.1174 C.ar   1 <0>      -0.0100
7 C7       -0.9721     3.5420     3.3065 C.ar   1 <0>      -0.1500
8 C8       -1.9213     2.7350     3.9177 C.ar   1 <0>       0.0800
9 N9       -2.6648     2.8385     5.0769 N.pl3  1 <0>      -0.6000
10 C10      -3.4460     1.7175     5.1583 C.2    1 <0>       0.3000
11 C11      -4.3999     1.4229     6.2497 C.ar   1 <0>      -0.0200
12 C12      -4.5611     2.3251     7.3019 C.ar   1 <0>      -0.1100
13 C13      -5.4528     2.0446     8.3167 C.ar   1 <0>      -0.1200
14 C14      -6.1863     0.8718     8.2924 C.ar   1 <0>      -0.1100
15 C15      -6.0311    -0.0268     7.2520 C.ar   1 <0>      -0.1200
16 C16      -5.1466     0.2444     6.2285 C.ar   1 <0>      -0.0700
17 N17      -3.2224     0.9448     4.1239 N.2    1 <0>      -0.4600
18 C18      -2.2920     1.5162     3.3212 C.ar   1 <0>       0.0200
19 C19      -1.7002     1.1346     2.1130 C.ar   1 <0>       0.0400
20 H20       0.3402     3.7698     1.6410 H      1 <0>       0.1400
21 H21      -0.6834     4.4786     3.7601 H      1 <0>       0.1200
22 H22      -2.6382     3.5691     5.7144 H      1 <0>       0.4200
23 H23      -3.9888     3.2408     7.3221 H      1 <0>       0.1200
24 H24      -5.5782     2.7419     9.1318 H      1 <0>       0.1300
25 H25      -6.8828     0.6567     9.0893 H      1 <0>       0.1300
26 H26      -6.6064    -0.9407     7.2391 H      1 <0>       0.1300
27 H27      -5.0263    -0.4579     5.4169 H      1 <0>       0.1400
28 H28      -1.9810     0.2033     1.6436 H      1 <0>       0.1400
@<TRIPOS>BOND
1    1    2 ar
2    2    3 ar
3    2    4 ar
4    2    5 1
5    5   19 ar
6    5    6 ar
7    6    7 ar
8    6   20 1
9    7    8 ar
10    7   21 1
11    8   18 ar
12    8    9 1
13    9   10 1
14    9   22 1
15   10   11 1
16   10   17 2
17   11   16 ar
18   11   12 ar
19   12   13 ar
20   12   23 1
21   13   14 ar
22   13   24 1
23   14   15 ar
24   14   25 1
25   15   16 ar
26   15   26 1
27   16   27 1
28   17   18 1
29   18   19 ar
30   19   28 1
