@<TRIPOS>MOLECULE
ZINC000011681563
73    76    1     0     0
SMALL
USER_CHARGES
@<TRIPOS>ATOM
1      C1      1.1782    0.4201   -1.1682 C.3      1 ZINC000011681563   -0.1200
2      C2      0.3611   -0.8397   -1.0402 C.ar     1 ZINC000011681563   -0.0600
3      C3     -0.0617   -1.5073   -2.1714 C.ar     1 ZINC000011681563   -0.1200
4      C4     -0.8115   -2.6642   -2.0553 C.ar     1 ZINC000011681563   -0.1100
5      C5     -1.1414   -3.1584   -0.8064 C.ar     1 ZINC000011681563   -0.1200
6      C6     -0.7242   -2.4987    0.3320 C.ar     1 ZINC000011681563   -0.0900
7      C7      0.0361   -1.3361    0.2212 C.ar     1 ZINC000011681563   -0.0500
8      C8      0.4877   -0.6231    1.4407 C.ar     1 ZINC000011681563    0.0400
9      C9      1.8025   -0.7368    1.8909 C.ar     1 ZINC000011681563   -0.1700
10     C10     2.1839   -0.0518    3.0372 C.ar     1 ZINC000011681563    0.3200
11     N11     3.4942   -0.1569    3.4966 N.3      1 ZINC000011681563   -0.4800
12     C12     3.8612   -1.5615    3.7245 C.3      1 ZINC000011681563    0.0600
13     C13     5.3290   -1.6397    4.1511 C.3      1 ZINC000011681563    0.0600
14     N14     5.5253   -0.8426    5.3700 N.3      1 ZINC000011681563   -0.5500
15     C15     6.9076   -0.9536    5.8547 C.3      1 ZINC000011681563    0.0200
16     C16     5.1582    0.5620    5.1421 C.3      1 ZINC000011681563    0.0500
17     C17     3.6904    0.6401    4.7155 C.3      1 ZINC000011681563    0.0700
18     N18     1.3180    0.7003    3.6987 N.ar     1 ZINC000011681563   -0.5100
19     C19     0.0651    0.8340    3.3056 C.ar     1 ZINC000011681563    0.1500
20     C20    -0.3960    0.1896    2.1700 C.ar     1 ZINC000011681563    0.0600
21     N21    -1.7267    0.3374    1.7606 N.am     1 ZINC000011681563   -0.5600
22     C22    -2.0760    1.3422    0.7533 C.3      1 ZINC000011681563    0.0600
23     C23    -2.6864   -0.4448    2.2932 C.2      1 ZINC000011681563    0.5300
24     O24    -2.4144   -1.2102    3.1940 O.2      1 ZINC000011681563   -0.5100
25     C25    -4.0974   -0.3684    1.7696 C.3      1 ZINC000011681563   -0.0300
26     C26    -4.0956   -0.6195    0.2603 C.3      1 ZINC000011681563   -0.1600
27     C27    -4.9564   -1.4285    2.4618 C.3      1 ZINC000011681563   -0.1300
28     C28    -4.6642    0.9993    2.0506 C.ar     1 ZINC000011681563   -0.0800
29     C29    -3.9478    1.9004    2.8159 C.ar     1 ZINC000011681563   -0.0400
30     C30    -4.4677    3.1551    3.0737 C.ar     1 ZINC000011681563   -0.1800
31     C31    -3.6869    4.1373    3.9085 C.3      1 ZINC000011681563    0.5100
32     F32    -2.8648    4.9056    3.0772 F        1 ZINC000011681563   -0.1700
33     F33    -4.5733    4.9763    4.5922 F        1 ZINC000011681563   -0.1700
34     F34    -2.8978    3.4417    4.8308 F        1 ZINC000011681563   -0.1700
35     C35    -5.7036    3.5089    2.5655 C.ar     1 ZINC000011681563   -0.0200
36     C36    -6.4198    2.6080    1.7999 C.ar     1 ZINC000011681563   -0.1800
37     C37    -7.7673    2.9936    1.2462 C.3      1 ZINC000011681563    0.5100
38     F38    -8.0761    4.3004    1.6387 F        1 ZINC000011681563   -0.1700
39     F39    -7.7356    2.9214   -0.1506 F        1 ZINC000011681563   -0.1700
40     F40    -8.7411    2.1170    1.7365 F        1 ZINC000011681563   -0.1700
41     C41    -5.8980    1.3549    1.5385 C.ar     1 ZINC000011681563   -0.0300
42     H42     2.2379    0.1743   -1.1004 H        1 ZINC000011681563    0.0700
43     H43     0.9748    0.8888   -2.1310 H        1 ZINC000011681563    0.0700
44     H44     0.9127    1.1084   -0.3657 H        1 ZINC000011681563    0.0600
45     H45     0.1927   -1.1257   -3.1491 H        1 ZINC000011681563    0.1300
46     H46    -1.1406   -3.1832   -2.9434 H        1 ZINC000011681563    0.1200
47     H47    -1.7269   -4.0620   -0.7218 H        1 ZINC000011681563    0.1200
48     H48    -0.9827   -2.8853    1.3067 H        1 ZINC000011681563    0.1200
49     H49     2.5137   -1.3488    1.3562 H        1 ZINC000011681563    0.1400
50     H50     3.2315   -1.9791    4.5101 H        1 ZINC000011681563    0.0600
51     H51     3.7193   -2.1284    2.8043 H        1 ZINC000011681563    0.0900
52     H52     5.5955   -2.6780    4.3487 H        1 ZINC000011681563    0.0900
53     H53     5.9607   -1.2471    3.3542 H        1 ZINC000011681563    0.0500
54     H54     7.5919   -0.5924    5.0869 H        1 ZINC000011681563    0.0300
55     H55     7.0253   -0.3542    6.7574 H        1 ZINC000011681563    0.0700
56     H56     7.1313   -1.9965    6.0792 H        1 ZINC000011681563    0.0700
57     H57     5.3002    1.1288    6.0623 H        1 ZINC000011681563    0.0900
58     H58     5.7880    0.9796    4.3565 H        1 ZINC000011681563    0.0400
59     H59     3.4240    1.6784    4.5179 H        1 ZINC000011681563    0.0900
60     H60     3.0587    0.2476    5.5124 H        1 ZINC000011681563    0.0600
61     H61    -0.6084    1.4573    3.8750 H        1 ZINC000011681563    0.1500
62     H62    -1.9956    0.9030   -0.2411 H        1 ZINC000011681563    0.0700
63     H63    -3.0982    1.6824    0.9187 H        1 ZINC000011681563    0.0900
64     H64    -1.3940    2.1887    0.8329 H        1 ZINC000011681563    0.0800
65     H65    -3.6538   -1.5945    0.0546 H        1 ZINC000011681563    0.0700
66     H66    -5.1196   -0.5986   -0.1127 H        1 ZINC000011681563    0.0700
67     H67    -3.5122    0.1558   -0.2363 H        1 ZINC000011681563    0.0800
68     H68    -4.9577   -1.2497    3.5371 H        1 ZINC000011681563    0.0700
69     H69    -5.9770   -1.3733    2.0831 H        1 ZINC000011681563    0.0700
70     H70    -4.5465   -2.4178    2.2585 H        1 ZINC000011681563    0.0700
71     H71    -2.9821    1.6241    3.2127 H        1 ZINC000011681563    0.1500
72     H72    -6.1097    4.4892    2.7670 H        1 ZINC000011681563    0.1600
73     H73    -6.4575    0.6510    0.9402 H        1 ZINC000011681563    0.1500
@<TRIPOS>BOND
1     1     2     1
2     1     42    1
3     1     43    1
4     1     44    1
5     2     7     ar
6     2     3     ar
7     3     4     ar
8     3     45    1
9     4     5     ar
10    4     46    1
11    5     6     ar
12    5     47    1
13    6     7     ar
14    6     48    1
15    7     8     1
16    8     20    ar
17    8     9     ar
18    9     10    ar
19    9     49    1
20    10    11    1
21    10    18    ar
22    11    17    1
23    11    12    1
24    12    13    1
25    12    50    1
26    12    51    1
27    13    14    1
28    13    52    1
29    13    53    1
30    14    15    1
31    14    16    1
32    15    54    1
33    15    55    1
34    15    56    1
35    16    17    1
36    16    57    1
37    16    58    1
38    17    59    1
39    17    60    1
40    18    19    ar
41    19    20    ar
42    19    61    1
43    20    21    1
44    21    22    1
45    21    23    am
46    22    62    1
47    22    63    1
48    22    64    1
49    23    24    2
50    23    25    1
51    25    26    1
52    25    27    1
53    25    28    1
54    26    65    1
55    26    66    1
56    26    67    1
57    27    68    1
58    27    69    1
59    27    70    1
60    28    41    ar
61    28    29    ar
62    29    30    ar
63    29    71    1
64    30    31    1
65    30    35    ar
66    31    32    1
67    31    33    1
68    31    34    1
69    35    36    ar
70    35    72    1
71    36    37    1
72    36    41    ar
73    37    38    1
74    37    39    1
75    37    40    1
76    41    73    1
@<TRIPOS>SUBSTRUCTURE
1   ZINC000011681563 1     RESIDUE    1   A     ZIN   1
