@<TRIPOS>MOLECULE
ZINC000000599734
39    41    1     0     0
SMALL
USER_CHARGES
@<TRIPOS>ATOM
1      C1     -0.0184    1.5028    0.0103 C.3      1 ZINC000000599734   -0.1200
2      C2      0.0021   -0.0041    0.0020 C.ar     1 ZINC000000599734   -0.1400
3      C3      0.0060   -0.7032   -1.2022 C.ar     1 ZINC000000599734    0.1700
4      O4     -0.0080   -0.0450   -2.3892 O.3      1 ZINC000000599734   -0.2900
5      C5     -0.0027   -0.8438   -3.5741 C.3      1 ZINC000000599734    0.0100
6      C6     -0.0203    0.0670   -4.8033 C.3      1 ZINC000000599734    0.4700
7      F7      1.1113    0.8896   -4.7903 F        1 ZINC000000599734   -0.1700
8      F8     -0.0151   -0.7150   -5.9633 F        1 ZINC000000599734   -0.1700
9      F9     -1.1730    0.8594   -4.7802 F        1 ZINC000000599734   -0.1700
10     C10     0.0250   -2.0953   -1.1576 C.ar     1 ZINC000000599734   -0.2500
11     C11     0.0393   -2.7270    0.0686 C.ar     1 ZINC000000599734    0.1400
12     N12     0.0346   -2.0292    1.1889 N.ar     1 ZINC000000599734   -0.4900
13     C13     0.0229   -0.7098    1.1876 C.ar     1 ZINC000000599734    0.1700
14     C14     0.0181    0.0355    2.4974 C.3      1 ZINC000000599734   -0.4200
15     S15     1.7263    0.3497    3.0207 S.o      1 ZINC000000599734    1.4000
16     O16     2.3089    1.3296    2.1724 O.2      1 ZINC000000599734   -0.7900
17     C17     1.5221    1.2139    4.5426 C.2      1 ZINC000000599734   -0.0700
18     N18     1.4212    2.5059    4.6583 N.2      1 ZINC000000599734   -0.4200
19     C19     1.2737    2.8369    5.9669 C.ar     1 ZINC000000599734    0.0300
20     C20     1.1250    4.0504    6.6430 C.ar     1 ZINC000000599734   -0.0500
21     C21     0.9951    4.0605    8.0031 C.ar     1 ZINC000000599734   -0.1300
22     C22     1.0090    2.8753    8.7242 C.ar     1 ZINC000000599734   -0.0900
23     C23     1.1551    1.6659    8.0780 C.ar     1 ZINC000000599734   -0.1200
24     C24     1.2879    1.6360    6.6968 C.ar     1 ZINC000000599734    0.0700
25     N25     1.4411    0.6269    5.7671 N.pl3    1 ZINC000000599734   -0.5600
26     H26     1.0042    1.8801    0.0026 H        1 ZINC000000599734    0.0900
27     H27    -0.5455    1.8639   -0.8728 H        1 ZINC000000599734    0.0700
28     H28    -0.5286    1.8543    0.9071 H        1 ZINC000000599734    0.0700
29     H29     0.8954   -1.4611   -3.5921 H        1 ZINC000000599734    0.1200
30     H30    -0.8844   -1.4847   -3.5841 H        1 ZINC000000599734    0.1100
31     H31     0.0283   -2.6721   -2.0706 H        1 ZINC000000599734    0.1400
32     H32     0.0541   -3.8060    0.1125 H        1 ZINC000000599734    0.1700
33     H33    -0.5044    0.9842    2.3737 H        1 ZINC000000599734    0.1200
34     H34    -0.4895   -0.5628    3.2540 H        1 ZINC000000599734    0.1400
35     H35     1.1132    4.9789    6.0915 H        1 ZINC000000599734    0.1300
36     H36     0.8807    5.0006    8.5222 H        1 ZINC000000599734    0.1300
37     H37     0.9051    2.9001    9.7989 H        1 ZINC000000599734    0.1300
38     H38     1.1660    0.7462    8.6441 H        1 ZINC000000599734    0.1300
39     H39     1.4839   -0.3242    5.9528 H        1 ZINC000000599734    0.4300
@<TRIPOS>BOND
1     1     2     1
2     1     26    1
3     1     27    1
4     1     28    1
5     2     13    ar
6     2     3     ar
7     3     4     1
8     3     10    ar
9     4     5     1
10    5     6     1
11    5     29    1
12    5     30    1
13    6     7     1
14    6     8     1
15    6     9     1
16    10    11    ar
17    10    31    1
18    11    12    ar
19    11    32    1
20    12    13    ar
21    13    14    1
22    14    15    1
23    14    33    1
24    14    34    1
25    15    16    2
26    15    17    1
27    17    25    1
28    17    18    2
29    18    19    1
30    19    24    ar
31    19    20    ar
32    20    21    ar
33    20    35    1
34    21    22    ar
35    21    36    1
36    22    23    ar
37    22    37    1
38    23    24    ar
39    23    38    1
40    24    25    1
41    25    39    1
@<TRIPOS>SUBSTRUCTURE
1   ZINC000000599734 1     RESIDUE    1   A     ZIN   1
