@<TRIPOS>MOLECULE
ZINC000100013130
73    81    1     0     0
SMALL
USER_CHARGES
@<TRIPOS>ATOM
1      C1     -2.5353   -0.9701   -1.2135 C.3      1 ZINC000100013130    0.0200
2      O2     -1.6592   -1.9189   -0.6016 O.3      1 ZINC000100013130   -0.3600
3      C3     -2.3149   -2.8283    0.2845 C.3      1 ZINC000100013130    0.0500
4      H4     -3.3391   -2.9892   -0.0521 H        1 ZINC000100013130    0.1100
5      C5     -2.3284   -2.2418    1.7010 C.3      1 ZINC000100013130    0.1100
6      H6     -2.8700   -1.2959    1.7028 H        1 ZINC000100013130    0.1000
7      N7     -0.9542   -2.0261    2.1605 N.am     1 ZINC000100013130   -0.6000
8      C8      0.1596   -2.1321    1.2148 C.3      1 ZINC000100013130   -0.1900
9      C9     -0.7145   -1.7303    3.4534 C.2      1 ZINC000100013130    0.5500
10     O10     0.3619   -2.0004    3.9493 O.2      1 ZINC000100013130   -0.4800
11     C11    -1.7609   -1.0772    4.2685 C.ar     1 ZINC000100013130   -0.1300
12     C12    -2.7873   -0.3621    3.6493 C.ar     1 ZINC000100013130   -0.1100
13     C13    -3.7609    0.2446    4.4157 C.ar     1 ZINC000100013130   -0.1300
14     C14    -3.7211    0.1457    5.7952 C.ar     1 ZINC000100013130   -0.1000
15     C15    -2.7062   -0.5612    6.4153 C.ar     1 ZINC000100013130   -0.1200
16     C16    -1.7299   -1.1778    5.6603 C.ar     1 ZINC000100013130   -0.0600
17     C17    -3.0328   -3.2438    2.6231 C.3      1 ZINC000100013130   -0.1900
18     C18    -2.2767   -4.5665    2.6034 C.3      1 ZINC000100013130    0.3300
19     H19    -2.9137   -5.3073    3.0866 H        1 ZINC000100013130    0.1300
20     O20    -2.0228   -5.0262    1.2951 O.3      1 ZINC000100013130   -0.3400
21     C21    -1.5682   -4.1565    0.2937 C.3      1 ZINC000100013130    0.3500
22     C22    -1.8232   -4.8430   -1.0496 C.3      1 ZINC000100013130   -0.1700
23     N23    -0.1263   -3.9164    0.3740 N.pl3    1 ZINC000100013130   -0.5100
24     C24     0.7135   -3.6502   -0.6810 C.ar     1 ZINC000100013130    0.1300
25     C25     2.0254   -3.4788   -0.1866 C.ar     1 ZINC000100013130   -0.0700
26     C26     3.0945   -3.1962   -1.0361 C.ar     1 ZINC000100013130   -0.0700
27     C27     2.8079   -3.0931   -2.3873 C.ar     1 ZINC000100013130   -0.1400
28     C28     1.5240   -3.2618   -2.8748 C.ar     1 ZINC000100013130   -0.1000
29     C29     0.4504   -3.5418   -2.0461 C.ar     1 ZINC000100013130   -0.1200
30     C30     1.9539   -3.6592    1.2647 C.ar     1 ZINC000100013130   -0.1700
31     C31     0.6070   -3.9298    1.5509 C.ar     1 ZINC000100013130    0.2900
32     C32     0.2054   -4.1600    2.8720 C.ar     1 ZINC000100013130    0.0500
33     C33     1.1430   -4.1194    3.9057 C.ar     1 ZINC000100013130    0.0900
34     C34     0.4049   -4.4051    5.1328 C.ar     1 ZINC000100013130   -0.1000
35     C35     0.8135   -4.5044    6.4640 C.ar     1 ZINC000100013130   -0.0300
36     C36    -0.1668   -4.7967    7.3971 C.ar     1 ZINC000100013130   -0.1700
37     C37    -1.4894   -4.9811    7.0340 C.ar     1 ZINC000100013130   -0.0700
38     C38    -1.9140   -4.8854    5.7194 C.ar     1 ZINC000100013130   -0.1600
39     C39    -0.9461   -4.5942    4.7591 C.ar     1 ZINC000100013130    0.1600
40     N40    -1.0502   -4.4703    3.3966 N.pl3    1 ZINC000100013130   -0.5100
41     C41     2.4982   -3.8374    3.6134 C.ar     1 ZINC000100013130   -0.1700
42     C42     2.8853   -3.6113    2.2970 C.ar     1 ZINC000100013130   -0.0300
43     C43     4.3702   -3.3427    2.3271 C.3      1 ZINC000100013130    0.1500
44     N44     4.7728   -3.4354    3.7349 N.am     1 ZINC000100013130   -0.7300
45     C45     3.6865   -3.7205    4.4727 C.2      1 ZINC000100013130    0.5700
46     O46     3.6859   -3.8624    5.6806 O.2      1 ZINC000100013130   -0.5300
47     H47    -1.9614   -0.3168   -1.8707 H        1 ZINC000100013130    0.1000
48     H48    -3.2921   -1.4966   -1.7950 H        1 ZINC000100013130    0.0500
49     H49    -3.0206   -0.3731   -0.4413 H        1 ZINC000100013130    0.0400
50     H50     0.4976   -1.1334    0.9381 H        1 ZINC000100013130    0.0300
51     H51     0.9806   -2.6776    1.6799 H        1 ZINC000100013130    0.1900
52     H52    -0.1707   -2.6640    0.3225 H        1 ZINC000100013130    0.2300
53     H53    -2.8190   -0.2836    2.5726 H        1 ZINC000100013130    0.1300
54     H54    -4.5556    0.7981    3.9378 H        1 ZINC000100013130    0.1300
55     H55    -4.4855    0.6228    6.3906 H        1 ZINC000100013130    0.1300
56     H56    -2.6807   -0.6343    7.4925 H        1 ZINC000100013130    0.1300
57     H57    -0.9385   -1.7297    6.1455 H        1 ZINC000100013130    0.1300
58     H58    -3.0520   -2.8510    3.6397 H        1 ZINC000100013130    0.1100
59     H59    -4.0534   -3.4030    2.2751 H        1 ZINC000100013130    0.1100
60     H60    -2.7464   -5.4199   -0.9933 H        1 ZINC000100013130    0.0900
61     H61    -1.9129   -4.0891   -1.8317 H        1 ZINC000100013130    0.1000
62     H62    -0.9920   -5.5092   -1.2807 H        1 ZINC000100013130    0.0900
63     H63     4.0977   -3.0638   -0.6586 H        1 ZINC000100013130    0.1400
64     H64     3.6082   -2.8756   -3.0791 H        1 ZINC000100013130    0.1200
65     H65     1.3533   -3.1718   -3.9374 H        1 ZINC000100013130    0.1300
66     H66    -0.5467   -3.6719   -2.4400 H        1 ZINC000100013130    0.1400
67     H67     1.8442   -4.3599    6.7521 H        1 ZINC000100013130    0.1500
68     H68     0.1086   -4.8836    8.4378 H        1 ZINC000100013130    0.1200
69     H69    -2.2148   -5.2068    7.8017 H        1 ZINC000100013130    0.1200
70     H70    -2.9496   -5.0308    5.4496 H        1 ZINC000100013130    0.1200
71     H71     4.8986   -4.0906    1.7359 H        1 ZINC000100013130    0.1000
72     H72     4.5785   -2.3443    1.9424 H        1 ZINC000100013130    0.1000
73     H73     5.6725   -3.3119    4.0759 H        1 ZINC000100013130    0.4200
@<TRIPOS>BOND
1     1     2     1
2     1     47    1
3     1     48    1
4     1     49    1
5     2     3     1
6     3     4     1
7     3     21    1
8     3     5     1
9     5     6     1
10    5     7     1
11    5     17    1
12    7     8     1
13    7     9     am
14    8     50    1
15    8     51    1
16    8     52    1
17    9     10    2
18    9     11    1
19    11    16    ar
20    11    12    ar
21    12    13    ar
22    12    53    1
23    13    14    ar
24    13    54    1
25    14    15    ar
26    14    55    1
27    15    16    ar
28    15    56    1
29    16    57    1
30    17    18    1
31    17    58    1
32    17    59    1
33    18    19    1
34    18    40    1
35    18    20    1
36    20    21    1
37    21    22    1
38    21    23    1
39    22    60    1
40    22    61    1
41    22    62    1
42    23    31    1
43    23    24    1
44    24    29    ar
45    24    25    ar
46    25    26    ar
47    25    30    1
48    26    27    ar
49    26    63    1
50    27    28    ar
51    27    64    1
52    28    29    ar
53    28    65    1
54    29    66    1
55    30    42    ar
56    30    31    ar
57    31    32    ar
58    32    40    1
59    32    33    ar
60    33    34    1
61    33    41    ar
62    34    39    ar
63    34    35    ar
64    35    36    ar
65    35    67    1
66    36    37    ar
67    36    68    1
68    37    38    ar
69    37    69    1
70    38    39    ar
71    38    70    1
72    39    40    1
73    41    45    1
74    41    42    ar
75    42    43    1
76    43    44    1
77    43    71    1
78    43    72    1
79    44    45    am
80    44    73    1
81    45    46    2
@<TRIPOS>SUBSTRUCTURE
1   ZINC000100013130 1     RESIDUE    1   A     ZIN   1
