@<TRIPOS>MOLECULE
ZINC000003918138
43    43    1     0     0
SMALL
USER_CHARGES
@<TRIPOS>ATOM
1      C1     -0.0184    1.5028    0.0103 C.3      1 ZINC000003918138   -0.1800
2      C2      0.0021   -0.0041    0.0020 C.2      1 ZINC000003918138    0.5200
3      O3      1.0605   -0.5961   -0.0113 O.2      1 ZINC000003918138   -0.5500
4      N4     -1.1558   -0.6938    0.0094 N.am     1 ZINC000003918138   -0.7200
5      C5     -1.1360   -2.1586    0.0013 C.3      1 ZINC000003918138    0.1100
6      H6     -0.2849   -2.5178    0.5799 H        1 ZINC000003918138    0.1200
7      C7     -2.4386   -2.6972    0.6082 C.3      1 ZINC000003918138    0.0500
8      H8     -3.2846   -2.3906   -0.0068 H        1 ZINC000003918138    0.0900
9      C9     -2.6095   -2.1532    2.0280 C.3      1 ZINC000003918138    0.1000
10     H10    -2.7371   -1.0713    1.9896 H        1 ZINC000003918138    0.1100
11     O11    -1.4503   -2.4689    2.8018 O.3      1 ZINC000003918138   -0.5500
12     C12    -3.8422   -2.7896    2.6731 C.3      1 ZINC000003918138    0.0800
13     H13    -3.7146   -3.8714    2.7114 H        1 ZINC000003918138    0.1300
14     O14    -5.0013   -2.4738    1.8993 O.3      1 ZINC000003918138   -0.5400
15     C15    -4.0131   -2.2456    4.0929 C.3      1 ZINC000003918138    0.0500
16     O16    -5.0935   -2.9243    4.7362 O.3      1 ZINC000003918138   -0.5600
17     O17    -2.3613   -4.1249    0.6444 O.3      1 ZINC000003918138   -0.2800
18     C18    -1.9546   -4.7598   -0.4819 C.2      1 ZINC000003918138    0.1100
19     C19    -2.2147   -6.2024   -0.6075 C.2      1 ZINC000003918138    0.5200
20     O20    -1.8593   -6.8029   -1.6125 O.co2    1 ZINC000003918138   -0.6600
21     O21    -2.7863   -6.8016    0.2932 O.co2    1 ZINC000003918138   -0.6400
22     C22    -1.3333   -4.1399   -1.4762 C.2      1 ZINC000003918138   -0.3400
23     C23    -1.0315   -2.6660   -1.4408 C.3      1 ZINC000003918138    0.1700
24     H24    -1.7486   -2.1331   -2.0652 H        1 ZINC000003918138    0.1000
25     N25     0.3238   -2.4327   -1.9456 N.pl3    1 ZINC000003918138   -0.6700
26     C26     0.5413   -2.3115   -3.2906 C.cat    1 ZINC000003918138    0.7400
27     N27    -0.4792   -2.4055   -4.1413 N.pl3    1 ZINC000003918138   -0.8000
28     N28     1.7735   -2.0993   -3.7495 N.pl3    1 ZINC000003918138   -0.8000
29     H29     1.9277   -2.0133   -4.7033 H        1 ZINC000003918138    0.4400
30     H30     2.5167   -2.0308   -3.1300 H        1 ZINC000003918138    0.4400
31     H31     1.0042    1.8801    0.0026 H        1 ZINC000003918138    0.1000
32     H32    -0.5455    1.8639   -0.8728 H        1 ZINC000003918138    0.0900
33     H33    -0.5286    1.8543    0.9071 H        1 ZINC000003918138    0.0900
34     H34    -2.0023   -0.2203    0.0200 H        1 ZINC000003918138    0.4100
35     H35    -1.2749   -3.4168    2.8786 H        1 ZINC000003918138    0.3900
36     H36    -5.1768   -1.5260    1.8225 H        1 ZINC000003918138    0.3700
37     H37    -3.0947   -2.4077    4.6571 H        1 ZINC000003918138    0.0600
38     H38    -4.2291   -1.1781    4.0494 H        1 ZINC000003918138    0.0400
39     H39    -5.2594   -2.6296    5.6422 H        1 ZINC000003918138    0.3800
40     H40    -1.0325   -4.7128   -2.3409 H        1 ZINC000003918138    0.1500
41     H41     1.0670   -2.3642   -1.3260 H        1 ZINC000003918138    0.4400
42     H42    -1.3766   -2.5600   -3.8071 H        1 ZINC000003918138    0.4400
43     H43    -0.3251   -2.3195   -5.0951 H        1 ZINC000003918138    0.4400
@<TRIPOS>BOND
1     1     2     1
2     1     31    1
3     1     32    1
4     1     33    1
5     2     3     2
6     2     4     am
7     4     5     1
8     4     34    1
9     5     6     1
10    5     23    1
11    5     7     1
12    7     8     1
13    7     9     1
14    7     17    1
15    9     10    1
16    9     11    1
17    9     12    1
18    11    35    1
19    12    13    1
20    12    14    1
21    12    15    1
22    14    36    1
23    15    16    1
24    15    37    1
25    15    38    1
26    16    39    1
27    17    18    1
28    18    19    1
29    18    22    2
30    19    20    ar
31    19    21    ar
32    22    23    1
33    22    40    1
34    23    24    1
35    23    25    1
36    25    26    ar
37    25    41    1
38    26    27    ar
39    26    28    ar
40    27    42    1
41    27    43    1
42    28    29    1
43    28    30    1
@<TRIPOS>SUBSTRUCTURE
1   ZINC000003918138 1     RESIDUE    1   A     ZIN   1
