@<TRIPOS>MOLECULE
ZINC000000388462
17   17    0    0    0
SMALL
USER_CHARGES
NO_NAME
@<TRIPOS>ATOM
1 O1        0.0021    -0.0041     0.0020 O.co2  1 <0>      -0.6900
2 C2       -0.0145     1.2150     0.0087 C.2    1 <0>       0.5000
3 O3        1.0330     1.8389     0.0021 O.co2  1 <0>      -0.7000
4 C4       -1.3296     1.9507     0.0190 C.3    1 <0>      -0.1600
5 C5       -2.4617     0.9559     0.0189 C.ar   1 <0>      -0.0200
6 C6       -2.9828     0.5019    -1.1782 C.ar   1 <0>      -0.1200
7 C7       -4.0212    -0.4105    -1.1783 C.ar   1 <0>      -0.1200
8 C8       -4.5382    -0.8693     0.0188 C.ar   1 <0>      -0.1500
9 C9       -4.0165    -0.4160     1.2160 C.ar   1 <0>      -0.1200
10 C10      -2.9752     0.4932     1.2160 C.ar   1 <0>      -0.1200
11 H11      -1.3917     2.5717     0.9126 H      1 <0>       0.0700
12 H12      -1.4001     2.5813    -0.8673 H      1 <0>       0.0700
13 H13      -2.5789     0.8604    -2.1135 H      1 <0>       0.1100
14 H14      -4.4288    -0.7647    -2.1136 H      1 <0>       0.1100
15 H15      -5.3499    -1.5817     0.0188 H      1 <0>       0.1100
16 H16      -4.4206    -0.7742     2.1513 H      1 <0>       0.1100
17 H17      -2.5676     0.8474     2.1513 H      1 <0>       0.1100
@<TRIPOS>BOND
1    1    2 ar
2    2    3 ar
3    2    4 1
4    4    5 1
5    4   11 1
6    4   12 1
7    5   10 ar
8    5    6 ar
9    6    7 ar
10    6   13 1
11    7    8 ar
12    7   14 1
13    8    9 ar
14    8   15 1
15    9   10 ar
16    9   16 1
17   10   17 1
