@<TRIPOS>MOLECULE
ZINC000000004724
31    33    1     0     0
SMALL
USER_CHARGES
@<TRIPOS>ATOM
1      N1     -0.0162    1.3436    0.0094 N.am     1 ZINC000000004724   -0.8600
2      C2      0.0021   -0.0041    0.0020 C.2      1 ZINC000000004724    0.7100
3      O3      1.0630   -0.5975   -0.0113 O.2      1 ZINC000000004724   -0.5600
4      N4     -1.1558   -0.6938    0.0094 N.am     1 ZINC000000004724   -0.5300
5      C5     -1.0793   -2.0836    0.0068 C.ar     1 ZINC000000004724    0.1600
6      C6     -0.1733   -2.6341    0.9234 C.ar     1 ZINC000000004724   -0.1000
7      C7     -0.0006   -3.9953    1.0210 C.ar     1 ZINC000000004724   -0.1100
8      C8     -0.7337   -4.8330    0.2006 C.ar     1 ZINC000000004724   -0.1100
9      C9     -1.6251   -4.2970   -0.7003 C.ar     1 ZINC000000004724   -0.1100
10     C10    -1.8102   -2.9166   -0.8092 C.ar     1 ZINC000000004724   -0.0800
11     C11    -2.8254   -2.5007   -1.8425 C.3      1 ZINC000000004724   -0.1200
12     C12    -2.8175   -1.0381   -2.1441 C.2      1 ZINC000000004724    0.4100
13     O13    -2.5286   -0.6555   -3.2584 O.2      1 ZINC000000004724   -0.4300
14     C14    -3.1558   -0.0622   -1.1069 C.ar     1 ZINC000000004724   -0.1600
15     C15    -4.2815    0.7592   -1.2172 C.ar     1 ZINC000000004724   -0.0600
16     C16    -4.5919    1.6193   -0.1845 C.ar     1 ZINC000000004724   -0.1200
17     C17    -3.8030    1.6672    0.9543 C.ar     1 ZINC000000004724   -0.0800
18     C18    -2.6743    0.8754    1.0624 C.ar     1 ZINC000000004724   -0.1300
19     C19    -2.3340    0.0308    0.0245 C.ar     1 ZINC000000004724    0.1600
20     H20     0.8172    1.8399    0.0041 H        1 ZINC000000004724    0.4200
21     H21    -0.8627    1.8171    0.0160 H        1 ZINC000000004724    0.4000
22     H22     0.3990   -1.9789    1.5634 H        1 ZINC000000004724    0.1300
23     H23     0.7008   -4.4060    1.7321 H        1 ZINC000000004724    0.1300
24     H24    -0.6069   -5.9035    0.2663 H        1 ZINC000000004724    0.1300
25     H25    -2.1936   -4.9579   -1.3377 H        1 ZINC000000004724    0.1300
26     H26    -2.6266   -3.0469   -2.7647 H        1 ZINC000000004724    0.1100
27     H27    -3.8177   -2.7767   -1.4858 H        1 ZINC000000004724    0.1100
28     H28    -4.9010    0.7210   -2.1011 H        1 ZINC000000004724    0.1400
29     H29    -5.4568    2.2612   -0.2641 H        1 ZINC000000004724    0.1400
30     H30    -4.0721    2.3291    1.7642 H        1 ZINC000000004724    0.1400
31     H31    -2.0641    0.9148    1.9527 H        1 ZINC000000004724    0.1400
@<TRIPOS>BOND
1     1     2     am
2     1     20    1
3     1     21    1
4     2     3     2
5     2     4     am
6     4     19    1
7     4     5     1
8     5     10    ar
9     5     6     ar
10    6     7     ar
11    6     22    1
12    7     8     ar
13    7     23    1
14    8     9     ar
15    8     24    1
16    9     10    ar
17    9     25    1
18    10    11    1
19    11    12    1
20    11    26    1
21    11    27    1
22    12    13    2
23    12    14    1
24    14    19    ar
25    14    15    ar
26    15    16    ar
27    15    28    1
28    16    17    ar
29    16    29    1
30    17    18    ar
31    17    30    1
32    18    19    ar
33    18    31    1
@<TRIPOS>SUBSTRUCTURE
1   ZINC000000004724 1     RESIDUE    1   A     ZIN   1
