@<TRIPOS>MOLECULE
ZINC000000113355
26   26    0    0    0
SMALL
USER_CHARGES
NO_NAME
@<TRIPOS>ATOM
1 C1       -0.0178     1.4648     0.0101 C.3    1 <0>      -0.0500
2 N2        0.0021    -0.0041     0.0020 N.4    1 <0>      -0.5100
3 H3        0.4744    -0.3295    -0.8281 H      1 <0>       0.4300
4 H4        0.4901    -0.3383     0.8195 H      1 <0>       0.4300
5 C5       -1.3761    -0.5125     0.0124 C.3    1 <0>      -0.0400
6 C6       -1.3553    -2.0424     0.0040 C.3    1 <0>       0.1300
7 H7       -0.8281    -2.4035     0.8871 H      1 <0>       0.1300
8 O8       -0.6865    -2.5032    -1.1717 O.3    1 <0>      -0.5500
9 C9       -2.7691    -2.5640     0.0147 C.ar   1 <0>      -0.1300
10 C10      -3.4626    -2.7040    -1.1730 C.ar   1 <0>      -0.1200
11 C11      -4.7601    -3.1824    -1.1665 C.ar   1 <0>      -0.0900
12 C12      -5.3664    -3.5216     0.0273 C.ar   1 <0>      -0.1300
13 C13      -4.6725    -3.3819     1.2207 C.ar   1 <0>       0.1200
14 O14      -5.2668    -3.7153     2.3966 O.3    1 <0>      -0.5000
15 C15      -3.3692    -2.9072     1.2110 C.ar   1 <0>      -0.1300
16 H16       1.0047     1.8421     0.0024 H      1 <0>       0.1300
17 H17      -0.5450     1.8259    -0.8730 H      1 <0>       0.1200
18 H18      -0.5280     1.8163     0.9069 H      1 <0>       0.1200
19 H19      -1.8863    -0.1610     0.9092 H      1 <0>       0.1400
20 H20      -1.9033    -0.1515    -0.8706 H      1 <0>       0.1400
21 H21      -1.1017    -2.2189    -1.9974 H      1 <0>       0.3900
22 H22      -2.9904    -2.4391    -2.1074 H      1 <0>       0.1300
23 H23      -5.2999    -3.2906    -2.0957 H      1 <0>       0.1400
24 H24      -6.3799    -3.8948     0.0318 H      1 <0>       0.1400
25 H25      -5.1345    -4.6373     2.6566 H      1 <0>       0.4000
26 H26      -2.8270    -2.7976     2.1386 H      1 <0>       0.1300
@<TRIPOS>BOND
1    1    2 1
2    1   16 1
3    1   17 1
4    1   18 1
5    2    3 1
6    2    4 1
7    2    5 1
8    5    6 1
9    5   19 1
10    5   20 1
11    6    7 1
12    6    8 1
13    6    9 1
14    8   21 1
15    9   15 ar
16    9   10 ar
17   10   11 ar
18   10   22 1
19   11   12 ar
20   11   23 1
21   12   13 ar
22   12   24 1
23   13   14 1
24   13   15 ar
25   14   25 1
26   15   26 1
