@<TRIPOS>MOLECULE
ZINC000000008492
18    19    1     0     0
SMALL
USER_CHARGES
@<TRIPOS>ATOM
1      O1     -0.0163    1.3542    0.0095 O.3      1 ZINC000000008492   -0.4800
2      C2      0.0021   -0.0041    0.0020 C.ar     1 ZINC000000008492    0.1300
3      C3      0.0059   -0.7065   -1.2211 C.ar     1 ZINC000000008492    0.1000
4      N4     -0.0079   -0.0578   -2.3890 N.ar     1 ZINC000000008492   -0.4600
5      C5     -0.0040   -0.7056   -3.5285 C.ar     1 ZINC000000008492    0.1300
6      C6      0.0145   -2.0980   -3.5800 C.ar     1 ZINC000000008492   -0.1700
7      C7      0.0293   -2.8225   -2.4225 C.ar     1 ZINC000000008492   -0.0600
8      C8      0.0251   -2.1227   -1.2008 C.ar     1 ZINC000000008492   -0.0900
9      C9      0.0401   -2.7996    0.0293 C.ar     1 ZINC000000008492   -0.1100
10     C10     0.0359   -2.0890    1.1913 C.ar     1 ZINC000000008492   -0.1000
11     C11     0.0227   -0.6971    1.1790 C.ar     1 ZINC000000008492   -0.1300
12     H12     0.8616    1.7595    0.0033 H        1 ZINC000000008492    0.3900
13     H13    -0.0159   -0.1455   -4.4518 H        1 ZINC000000008492    0.1600
14     H14     0.0169   -2.6036   -4.5343 H        1 ZINC000000008492    0.1400
15     H15     0.0434   -3.9022   -2.4436 H        1 ZINC000000008492    0.1400
16     H16     0.0545   -3.8792    0.0540 H        1 ZINC000000008492    0.1300
17     H17     0.0471   -2.6129    2.1357 H        1 ZINC000000008492    0.1300
18     H18     0.0200   -0.1570    2.1142 H        1 ZINC000000008492    0.1400
@<TRIPOS>BOND
1     1     2     1
2     1     12    1
3     2     11    ar
4     2     3     ar
5     3     8     ar
6     3     4     ar
7     4     5     ar
8     5     6     ar
9     5     13    1
10    6     7     ar
11    6     14    1
12    7     8     ar
13    7     15    1
14    8     9     ar
15    9     10    ar
16    9     16    1
17    10    11    ar
18    10    17    1
19    11    18    1
@<TRIPOS>SUBSTRUCTURE
1   ZINC000000008492 1     RESIDUE    1   A     ZIN   1
