@<TRIPOS>MOLECULE
ZINC000000002281
36   36    0    0    0
SMALL
USER_CHARGES
NO_NAME
@<TRIPOS>ATOM
1 C1       -0.0187     1.5258     0.0104 C.3    1 <0>      -0.1800
2 C2        0.0021    -0.0041     0.0020 C.3    1 <0>       0.0600
3 C3        0.7421    -0.5109     1.2415 C.3    1 <0>      -0.1800
4 C4       -1.4333    -0.5336     0.0129 C.3    1 <0>      -0.1800
5 N5        0.6897    -0.4778    -1.2066 N.4    1 <0>      -0.5000
6 H6        0.7033    -1.4867    -1.2121 H      1 <0>       0.4300
7 H7        0.2017    -0.1436    -2.0240 H      1 <0>       0.4300
8 C8        2.0678     0.0307    -1.2170 C.3    1 <0>      -0.0500
9 C9        2.7840    -0.4628    -2.4758 C.3    1 <0>       0.1400
10 H10       2.7213    -1.5498    -2.5270 H      1 <0>       0.1300
11 O11       2.1628     0.1050    -3.6307 O.3    1 <0>      -0.5400
12 C12       4.2310    -0.0447    -2.4270 C.ar   1 <0>      -0.1100
13 C13       4.5876     1.2467    -2.7651 C.ar   1 <0>      -0.1500
14 C14       5.9194     1.6342    -2.7210 C.ar   1 <0>       0.1400
15 O15       6.2694     2.9046    -3.0532 O.3    1 <0>      -0.4900
16 C16       6.8924     0.7243    -2.3373 C.ar   1 <0>      -0.1600
17 C17       6.5321    -0.5708    -1.9986 C.ar   1 <0>       0.1400
18 O18       7.4836    -1.4649    -1.6216 O.3    1 <0>      -0.4900
19 C19       5.1983    -0.9518    -2.0389 C.ar   1 <0>      -0.1400
20 H20       1.0039     1.9031     0.0027 H      1 <0>       0.0800
21 H21      -0.5459     1.8868    -0.8726 H      1 <0>       0.0800
22 H22      -0.5289     1.8773     0.9072 H      1 <0>       0.1100
23 H23       0.2319    -0.1594     2.1383 H      1 <0>       0.1100
24 H24       0.7568    -1.6008     1.2356 H      1 <0>       0.0800
25 H25       1.7647    -0.1336     1.2338 H      1 <0>       0.0800
26 H26      -1.9605    -0.1726    -0.8702 H      1 <0>       0.0800
27 H27      -1.4185    -1.6235     0.0069 H      1 <0>       0.0800
28 H28      -1.9435    -0.1821     0.9097 H      1 <0>       0.1100
29 H29       2.0530     1.1205    -1.2110 H      1 <0>       0.1400
30 H30       2.5950    -0.3304    -0.3340 H      1 <0>       0.1500
31 H31       2.1814     1.0716    -3.6522 H      1 <0>       0.3900
32 H32       3.8292     1.9551    -3.0643 H      1 <0>       0.1300
33 H33       6.2708     3.5200    -2.3073 H      1 <0>       0.4000
34 H34       7.9295     1.0238    -2.3027 H      1 <0>       0.1500
35 H35       7.6586    -1.4755    -0.6706 H      1 <0>       0.4000
36 H36       4.9171    -1.9606    -1.7751 H      1 <0>       0.1400
@<TRIPOS>BOND
1    1    2 1
2    1   20 1
3    1   21 1
4    1   22 1
5    2    3 1
6    2    4 1
7    2    5 1
8    3   23 1
9    3   24 1
10    3   25 1
11    4   26 1
12    4   27 1
13    4   28 1
14    5    6 1
15    5    7 1
16    5    8 1
17    8    9 1
18    8   29 1
19    8   30 1
20    9   10 1
21    9   11 1
22    9   12 1
23   11   31 1
24   12   19 ar
25   12   13 ar
26   13   14 ar
27   13   32 1
28   14   15 1
29   14   16 ar
30   15   33 1
31   16   17 ar
32   16   34 1
33   17   18 1
34   17   19 ar
35   18   35 1
36   19   36 1
