@<TRIPOS>MOLECULE
ZINC000000006016
47    48    1     0     0
SMALL
USER_CHARGES
@<TRIPOS>ATOM
1      C1      0.6367    2.0941    0.3476 C.3      1 ZINC000000006016    0.0300
2      O2      0.4690    0.6815    0.2120 O.3      1 ZINC000000006016   -0.3200
3      C3      0.9801   -0.0982    1.2008 C.ar     1 ZINC000000006016    0.1200
4      C4      1.6246    0.4846    2.2822 C.ar     1 ZINC000000006016   -0.2100
5      C5      2.1428   -0.3101    3.2863 C.ar     1 ZINC000000006016   -0.0800
6      C6      2.0200   -1.6854    3.2139 C.ar     1 ZINC000000006016   -0.1100
7      C7      2.5867   -2.5500    4.3104 C.3      1 ZINC000000006016   -0.0300
8      H8      2.9444   -1.9180    5.1232 H        1 ZINC000000006016    0.0900
9      C9      1.4975   -3.4877    4.8349 C.3      1 ZINC000000006016    0.0600
10     N10     1.9901   -4.1930    6.0256 N.3      1 ZINC000000006016   -0.5300
11     C11     2.2115   -3.2583    7.1371 C.3      1 ZINC000000006016    0.0200
12     C12     1.0706   -5.2692    6.4181 C.3      1 ZINC000000006016    0.0200
13     C13     3.7493   -3.3773    3.7581 C.3      1 ZINC000000006016    0.1600
14     O14     3.2552   -4.3088    2.7937 O.3      1 ZINC000000006016   -0.5600
15     C15     4.7669   -2.4473    3.0943 C.3      1 ZINC000000006016   -0.1500
16     C16     5.9294   -3.2746    2.5420 C.3      1 ZINC000000006016   -0.1200
17     C17     6.6035   -4.0344    3.6863 C.3      1 ZINC000000006016   -0.1200
18     C18     5.5859   -4.9644    4.3501 C.3      1 ZINC000000006016   -0.1200
19     C19     4.4233   -4.1371    4.9023 C.3      1 ZINC000000006016   -0.1600
20     C20     1.3777   -2.2687    2.1374 C.ar     1 ZINC000000006016   -0.0600
21     C21     0.8531   -1.4781    1.1333 C.ar     1 ZINC000000006016   -0.1600
22     H22     1.6998    2.3316    0.3879 H        1 ZINC000000006016    0.0500
23     H23     0.1841    2.5974   -0.5068 H        1 ZINC000000006016    0.1000
24     H24     0.1541    2.4309    1.2651 H        1 ZINC000000006016    0.0500
25     H25     1.7214    1.5588    2.3389 H        1 ZINC000000006016    0.1300
26     H26     2.6447    0.1431    4.1284 H        1 ZINC000000006016    0.1200
27     H27     0.6131   -2.9068    5.0966 H        1 ZINC000000006016    0.0300
28     H28     1.2403   -4.2134    4.0633 H        1 ZINC000000006016    0.0900
29     H29     1.2735   -2.7628    7.3875 H        1 ZINC000000006016    0.0300
30     H30     2.5760   -3.8065    8.0058 H        1 ZINC000000006016    0.0700
31     H31     2.9494   -2.5119    6.8426 H        1 ZINC000000006016    0.0700
32     H32     0.9790   -5.9848    5.6011 H        1 ZINC000000006016    0.0700
33     H33     1.4593   -5.7749    7.3021 H        1 ZINC000000006016    0.0700
34     H34     0.0912   -4.8466    6.6425 H        1 ZINC000000006016    0.0300
35     H35     3.9392   -4.8682    2.4008 H        1 ZINC000000006016    0.3700
36     H36     4.2867   -1.9060    2.2791 H        1 ZINC000000006016    0.0700
37     H37     5.1437   -1.7368    3.8300 H        1 ZINC000000006016    0.0600
38     H38     5.5526   -3.9851    1.8064 H        1 ZINC000000006016    0.0600
39     H39     6.6544   -2.6121    2.0691 H        1 ZINC000000006016    0.0600
40     H40     7.4317   -4.6238    3.2928 H        1 ZINC000000006016    0.0600
41     H41     6.9804   -3.3239    4.4219 H        1 ZINC000000006016    0.0600
42     H42     5.2090   -5.6749    3.6144 H        1 ZINC000000006016    0.0600
43     H43     6.0661   -5.5057    5.1652 H        1 ZINC000000006016    0.0600
44     H44     4.8002   -3.4266    5.6380 H        1 ZINC000000006016    0.0600
45     H45     3.6984   -4.7996    5.3753 H        1 ZINC000000006016    0.1200
46     H46     1.2827   -3.3432    2.0832 H        1 ZINC000000006016    0.1400
47     H47     0.3515   -1.9342    0.2926 H        1 ZINC000000006016    0.1300
@<TRIPOS>BOND
1     1     2     1
2     1     22    1
3     1     23    1
4     1     24    1
5     2     3     1
6     3     21    ar
7     3     4     ar
8     4     5     ar
9     4     25    1
10    5     6     ar
11    5     26    1
12    6     7     1
13    6     20    ar
14    7     8     1
15    7     9     1
16    7     13    1
17    9     10    1
18    9     27    1
19    9     28    1
20    10    11    1
21    10    12    1
22    11    29    1
23    11    30    1
24    11    31    1
25    12    32    1
26    12    33    1
27    12    34    1
28    13    19    1
29    13    14    1
30    13    15    1
31    14    35    1
32    15    16    1
33    15    36    1
34    15    37    1
35    16    17    1
36    16    38    1
37    16    39    1
38    17    18    1
39    17    40    1
40    17    41    1
41    18    19    1
42    18    42    1
43    18    43    1
44    19    44    1
45    19    45    1
46    20    21    ar
47    20    46    1
48    21    47    1
@<TRIPOS>SUBSTRUCTURE
1   ZINC000000006016 1     RESIDUE    1   A     ZIN   1
