@<TRIPOS>MOLECULE
ZINC000003938695
58    61    1     0     0
SMALL
USER_CHARGES
@<TRIPOS>ATOM
1      C1      0.7181   -1.3346   -0.0264 C.1      1 ZINC000003938695   -0.1700
2      C2      0.5574   -0.1727   -0.0752 C.1      1 ZINC000003938695   -0.2000
3      C3      0.3560    1.2841   -0.1365 C.3      1 ZINC000003938695    0.2500
4      O4     -0.6050    1.7011    0.8690 O.3      1 ZINC000003938695   -0.3300
5      C5     -1.8326    1.1625    0.7991 C.2      1 ZINC000003938695    0.4500
6      C6     -2.8830    1.5476    1.8087 C.3      1 ZINC000003938695   -0.1500
7      O7     -2.0954    0.3690   -0.0734 O.2      1 ZINC000003938695   -0.5000
8      C8     -0.1267    1.7004   -1.5483 C.3      1 ZINC000003938695   -0.1300
9      C9      0.9943    2.5916   -2.1493 C.3      1 ZINC000003938695   -0.1200
10     C10     2.2397    2.1446   -1.3757 C.3      1 ZINC000003938695   -0.0800
11     H11     2.5866    1.1781   -1.7413 H        1 ZINC000003938695    0.0800
12     C12     3.3871    3.1377   -1.3408 C.3      1 ZINC000003938695   -0.0800
13     H13     3.0470    4.0858   -0.9242 H        1 ZINC000003938695    0.0900
14     C14     3.9280    3.3521   -2.7575 C.3      1 ZINC000003938695   -0.1100
15     C15     5.0365    4.4060   -2.7174 C.3      1 ZINC000003938695   -0.0900
16     C16     6.0927    3.9677   -1.7192 C.2      1 ZINC000003938695   -0.0500
17     C17     7.3622    4.0066   -2.1080 C.2      1 ZINC000003938695   -0.1300
18     C18     8.4314    3.6076   -1.1761 C.2      1 ZINC000003938695    0.1700
19     N19     9.6010    3.2415   -1.5958 N.2      1 ZINC000003938695   -0.3400
20     O20    10.6010    2.8655   -0.6664 O.3      1 ZINC000003938695   -0.4100
21     C21     8.0894    3.6489    0.3007 C.3      1 ZINC000003938695   -0.1100
22     C22     6.7629    2.9127    0.4823 C.3      1 ZINC000003938695   -0.1100
23     C23     5.6569    3.5302   -0.3549 C.3      1 ZINC000003938695   -0.0500
24     H24     5.2906    4.4131    0.1690 H        1 ZINC000003938695    0.0800
25     C25     4.4903    2.5405   -0.4553 C.3      1 ZINC000003938695   -0.0700
26     H26     4.8425    1.6246   -0.9298 H        1 ZINC000003938695    0.0700
27     C27     3.9913    2.2118    0.9487 C.3      1 ZINC000003938695   -0.1100
28     C28     2.7430    1.3160    0.9136 C.3      1 ZINC000003938695   -0.1000
29     C29     1.6820    2.0101    0.0667 C.3      1 ZINC000003938695   -0.0400
30     C30     1.4344    3.4223    0.6007 C.3      1 ZINC000003938695   -0.1100
31     C31     1.0719    3.3500    2.0853 C.3      1 ZINC000003938695   -0.1600
32     H32     0.8618   -2.3738    0.0173 H        1 ZINC000003938695    0.2200
33     H33    -2.4646    2.2682    2.5115 H        1 ZINC000003938695    0.0900
34     H34    -3.7346    1.9936    1.2950 H        1 ZINC000003938695    0.1000
35     H35    -3.2095    0.6597    2.3500 H        1 ZINC000003938695    0.1000
36     H36    -0.2749    0.8165   -2.1687 H        1 ZINC000003938695    0.0800
37     H37    -1.0554    2.2662   -1.4745 H        1 ZINC000003938695    0.0800
38     H38     1.1120    2.3970   -3.2153 H        1 ZINC000003938695    0.0700
39     H39     0.7865    3.6464   -1.9694 H        1 ZINC000003938695    0.0800
40     H40     4.3308    2.4141   -3.1395 H        1 ZINC000003938695    0.0700
41     H41     3.1226    3.6951   -3.4069 H        1 ZINC000003938695    0.0700
42     H42     5.4856    4.5017   -3.7060 H        1 ZINC000003938695    0.0800
43     H43     4.6184    5.3645   -2.4097 H        1 ZINC000003938695    0.0800
44     H44     7.6108    4.3305   -3.1079 H        1 ZINC000003938695    0.1300
45     H45    11.4395    2.6082   -1.0734 H        1 ZINC000003938695    0.4000
46     H46     8.8707    3.1523    0.8761 H        1 ZINC000003938695    0.0900
47     H47     7.9871    4.6833    0.6286 H        1 ZINC000003938695    0.0900
48     H48     6.8914    1.8711    0.1880 H        1 ZINC000003938695    0.0700
49     H49     6.4764    2.9507    1.5333 H        1 ZINC000003938695    0.0800
50     H50     4.7820    1.6983    1.4958 H        1 ZINC000003938695    0.0700
51     H51     3.7483    3.1400    1.4659 H        1 ZINC000003938695    0.0700
52     H52     2.9820    0.3645    0.4386 H        1 ZINC000003938695    0.0600
53     H53     2.3797    1.1454    1.9270 H        1 ZINC000003938695    0.0700
54     H54     2.3365    4.0213    0.4757 H        1 ZINC000003938695    0.0800
55     H55     0.6143    3.8811    0.0483 H        1 ZINC000003938695    0.0600
56     H56     1.0056    4.3588    2.4927 H        1 ZINC000003938695    0.0500
57     H57     0.1115    2.8476    2.2007 H        1 ZINC000003938695    0.0800
58     H58     1.8404    2.7919    2.6202 H        1 ZINC000003938695    0.0500
@<TRIPOS>BOND
1     1     2     3
2     1     32    1
3     2     3     1
4     3     29    1
5     3     4     1
6     3     8     1
7     4     5     1
8     5     6     1
9     5     7     2
10    6     33    1
11    6     34    1
12    6     35    1
13    8     9     1
14    8     36    1
15    8     37    1
16    9     10    1
17    9     38    1
18    9     39    1
19    10    11    1
20    10    29    1
21    10    12    1
22    12    13    1
23    12    25    1
24    12    14    1
25    14    15    1
26    14    40    1
27    14    41    1
28    15    16    1
29    15    42    1
30    15    43    1
31    16    23    1
32    16    17    2
33    17    18    1
34    17    44    1
35    18    19    2
36    18    21    1
37    19    20    1
38    20    45    1
39    21    22    1
40    21    46    1
41    21    47    1
42    22    23    1
43    22    48    1
44    22    49    1
45    23    24    1
46    23    25    1
47    25    26    1
48    25    27    1
49    27    28    1
50    27    50    1
51    27    51    1
52    28    29    1
53    28    52    1
54    28    53    1
55    29    30    1
56    30    31    1
57    30    54    1
58    30    55    1
59    31    56    1
60    31    57    1
61    31    58    1
@<TRIPOS>SUBSTRUCTURE
1   ZINC000003938695 1     RESIDUE    1   A     ZIN   1
