@<TRIPOS>MOLECULE
ZINC000004097308
64    68    1     0     0
SMALL
USER_CHARGES
@<TRIPOS>ATOM
1      C1     -0.0192    1.5454    0.1143 C.3      1 ZINC000004097308   -0.1600
2      C2      0.0133    0.0160    0.1432 C.3      1 ZINC000004097308    0.2500
3      C3     -1.4169   -0.5236    0.2083 C.3      1 ZINC000004097308   -0.1800
4      O4      0.6521   -0.4700   -1.0408 O.3      1 ZINC000004097308   -0.3600
5      C5      1.5116   -1.5481   -0.6415 C.3      1 ZINC000004097308    0.0700
6      H6      2.4049   -1.6109   -1.2630 H        1 ZINC000004097308    0.1200
7      C7      0.7095   -2.8704   -0.6453 C.3      1 ZINC000004097308   -0.1400
8      C8      0.5185   -3.2332    0.8236 C.3      1 ZINC000004097308   -0.0900
9      H9     -0.3849   -2.7579    1.2058 H        1 ZINC000004097308    0.0900
10     C10     0.5001   -4.7120    1.1586 C.3      1 ZINC000004097308   -0.0700
11     H11     1.4414   -5.1730    0.8594 H        1 ZINC000004097308    0.1000
12     C12    -0.6674   -5.3936    0.4396 C.3      1 ZINC000004097308   -0.1400
13     C13    -0.6310   -6.8948    0.7340 C.3      1 ZINC000004097308    0.1200
14     H14     0.2751   -7.3283    0.3108 H        1 ZINC000004097308    0.1000
15     F15    -1.7533   -7.5108    0.1700 F        1 ZINC000004097308   -0.2000
16     C16    -0.6376   -7.0976    2.2383 C.2      1 ZINC000004097308   -0.0600
17     C17    -1.5077   -7.9726    2.7416 C.2      1 ZINC000004097308   -0.2200
18     C18    -1.5472   -8.2201    4.1870 C.2      1 ZINC000004097308    0.3900
19     O19    -2.5271   -8.6875    4.7286 O.2      1 ZINC000004097308   -0.4500
20     C20    -0.2986   -7.8603    4.9683 C.3      1 ZINC000004097308   -0.1700
21     C21     0.0973   -6.4396    4.5689 C.3      1 ZINC000004097308   -0.1000
22     C22     0.3330   -6.3204    3.0733 C.3      1 ZINC000004097308   -0.0200
23     C23     1.7403   -6.8399    2.7724 C.3      1 ZINC000004097308   -0.1400
24     C24     0.3133   -4.8396    2.6776 C.3      1 ZINC000004097308   -0.0600
25     H25    -0.6584   -4.4173    2.9337 H        1 ZINC000004097308    0.0800
26     C26     1.3971   -4.0983    3.4549 C.3      1 ZINC000004097308    0.1100
27     H27     1.1606   -4.1361    4.5182 H        1 ZINC000004097308    0.0600
28     O28     2.6528   -4.7437    3.2340 O.3      1 ZINC000004097308   -0.5400
29     C29     1.5068   -2.6293    3.0178 C.3      1 ZINC000004097308   -0.1300
30     C30     1.7662   -2.6161    1.5102 C.3      1 ZINC000004097308   -0.0400
31     C31     3.0039   -3.4501    1.1734 C.3      1 ZINC000004097308   -0.1500
32     C32     1.8515   -1.2170    0.8453 C.3      1 ZINC000004097308    0.0400
33     C33     3.1950   -0.5586    1.0259 C.2      1 ZINC000004097308    0.3700
34     O34     4.1907   -1.2350    1.1232 O.2      1 ZINC000004097308   -0.4000
35     C35     3.2960    0.9439    1.0853 C.3      1 ZINC000004097308    0.0300
36     O36     4.6627    1.3229    1.2599 O.3      1 ZINC000004097308   -0.5500
37     O37     0.7413   -0.4235    1.2916 O.3      1 ZINC000004097308   -0.3500
38     H38     0.9997    1.9297    0.0674 H        1 ZINC000004097308    0.0600
39     H39    -0.5746    1.8805   -0.7618 H        1 ZINC000004097308    0.0800
40     H40    -0.5061    1.9156    1.0165 H        1 ZINC000004097308    0.0800
41     H41    -1.9755   -0.1783   -0.6616 H        1 ZINC000004097308    0.0800
42     H42    -1.3940   -1.6133    0.2164 H        1 ZINC000004097308    0.0700
43     H43    -1.9000   -0.1636    1.1167 H        1 ZINC000004097308    0.0800
44     H44    -0.2575   -2.7238   -1.1266 H        1 ZINC000004097308    0.0900
45     H45     1.2719   -3.6514   -1.1569 H        1 ZINC000004097308    0.0900
46     H46    -1.6088   -4.9752    0.7959 H        1 ZINC000004097308    0.0800
47     H47    -0.5787   -5.2308   -0.6345 H        1 ZINC000004097308    0.0900
48     H48    -2.1839   -8.5000    2.0851 H        1 ZINC000004097308    0.1400
49     H49    -0.5064   -7.9002    6.0375 H        1 ZINC000004097308    0.0900
50     H50     0.5060   -8.5526    4.7203 H        1 ZINC000004097308    0.1000
51     H51    -0.6988   -5.7540    4.8592 H        1 ZINC000004097308    0.0700
52     H52     1.0111   -6.1641    5.0955 H        1 ZINC000004097308    0.0900
53     H53     1.7179   -7.9270    2.6968 H        1 ZINC000004097308    0.0400
54     H54     2.0898   -6.4173    1.8303 H        1 ZINC000004097308    0.0700
55     H55     2.4158   -6.5453    3.5755 H        1 ZINC000004097308    0.1000
56     H56     3.3944   -4.3297    3.6963 H        1 ZINC000004097308    0.3700
57     H57     0.5682   -2.1119    3.2165 H        1 ZINC000004097308    0.0800
58     H58     2.3210   -2.1422    3.5543 H        1 ZINC000004097308    0.0700
59     H59     2.7869   -4.5054    1.3389 H        1 ZINC000004097308    0.1000
60     H60     3.2739   -3.2941    0.1290 H        1 ZINC000004097308    0.0400
61     H61     3.8325   -3.1449    1.8124 H        1 ZINC000004097308    0.0700
62     H62     2.9164    1.3704    0.1568 H        1 ZINC000004097308    0.0800
63     H63     2.7061    1.3149    1.9234 H        1 ZINC000004097308    0.0900
64     H64     4.8029    2.2785    1.3067 H        1 ZINC000004097308    0.3900
@<TRIPOS>BOND
1     1     2     1
2     1     38    1
3     1     39    1
4     1     40    1
5     2     37    1
6     2     3     1
7     2     4     1
8     3     41    1
9     3     42    1
10    3     43    1
11    4     5     1
12    5     6     1
13    5     32    1
14    5     7     1
15    7     8     1
16    7     44    1
17    7     45    1
18    8     9     1
19    8     30    1
20    8     10    1
21    10    11    1
22    10    24    1
23    10    12    1
24    12    13    1
25    12    46    1
26    12    47    1
27    13    14    1
28    13    15    1
29    13    16    1
30    16    22    1
31    16    17    2
32    17    18    1
33    17    48    1
34    18    19    2
35    18    20    1
36    20    21    1
37    20    49    1
38    20    50    1
39    21    22    1
40    21    51    1
41    21    52    1
42    22    23    1
43    22    24    1
44    23    53    1
45    23    54    1
46    23    55    1
47    24    25    1
48    24    26    1
49    26    27    1
50    26    28    1
51    26    29    1
52    28    56    1
53    29    30    1
54    29    57    1
55    29    58    1
56    30    31    1
57    30    32    1
58    31    59    1
59    31    60    1
60    31    61    1
61    32    33    1
62    32    37    1
63    33    34    2
64    33    35    1
65    35    36    1
66    35    62    1
67    35    63    1
68    36    64    1
@<TRIPOS>SUBSTRUCTURE
1   ZINC000004097308 1     RESIDUE    1   A     ZIN   1
