@<TRIPOS>MOLECULE
ZINC000003798757
61    63    1     0     0
SMALL
USER_CHARGES
@<TRIPOS>ATOM
1      C1     -0.5651    1.5574    0.6855 C.3      1 ZINC000003798757   -0.1500
2      C2     -0.6600    0.0352    0.8079 C.3      1 ZINC000003798757    0.0600
3      O3     -1.8852   -0.4255    0.1797 O.3      1 ZINC000003798757   -0.3600
4      C4     -2.1213   -1.7467    0.2004 C.2      1 ZINC000003798757    0.4300
5      O5     -1.3303   -2.4935    0.7262 O.2      1 ZINC000003798757   -0.5100
6      C6     -3.3729   -2.2986   -0.4320 C.3      1 ZINC000003798757    0.1000
7      H7     -3.3864   -2.0453   -1.4921 H        1 ZINC000003798757    0.1300
8      C8     -4.5999   -1.6931    0.2526 C.3      1 ZINC000003798757   -0.0900
9      C9     -5.8670   -2.1560   -0.4691 C.3      1 ZINC000003798757   -0.0800
10     C10    -7.0756   -1.5597    0.2052 C.ar     1 ZINC000003798757   -0.0700
11     C11    -7.6916   -2.2345    1.2426 C.ar     1 ZINC000003798757   -0.1200
12     C12    -8.8002   -1.6874    1.8612 C.ar     1 ZINC000003798757   -0.1200
13     C13    -9.2925   -0.4654    1.4427 C.ar     1 ZINC000003798757   -0.1300
14     C14    -8.6759    0.2099    0.4060 C.ar     1 ZINC000003798757   -0.1200
15     C15    -7.5648   -0.3352   -0.2098 C.ar     1 ZINC000003798757   -0.1200
16     N16    -3.3967   -3.7592   -0.2772 N.3      1 ZINC000003798757   -0.6300
17     C17    -2.6400   -4.4149   -1.3521 C.3      1 ZINC000003798757    0.0500
18     H18    -2.7609   -3.8516   -2.2774 H        1 ZINC000003798757    0.1400
19     C19    -1.1580   -4.4649   -0.9753 C.3      1 ZINC000003798757   -0.1600
20     C20    -3.1564   -5.8172   -1.5467 C.2      1 ZINC000003798757    0.5700
21     O21    -3.6847   -6.4023   -0.6249 O.2      1 ZINC000003798757   -0.5600
22     N22    -3.0312   -6.4213   -2.7450 N.am     1 ZINC000003798757   -0.5800
23     C23    -2.3393   -5.8566   -3.9078 C.3      1 ZINC000003798757    0.0500
24     H24    -1.2874   -5.6977   -3.6700 H        1 ZINC000003798757    0.0600
25     C25    -2.9778   -4.5477   -4.2952 C.2      1 ZINC000003798757    0.4900
26     O26    -2.4412   -3.8283   -5.1205 O.co2    1 ZINC000003798757   -0.6900
27     O27    -4.0310   -4.2081   -3.7834 O.co2    1 ZINC000003798757   -0.6700
28     C28    -2.4651   -6.8598   -5.0643 C.3      1 ZINC000003798757   -0.1000
29     C29    -2.8875   -8.1874   -4.3968 C.3      1 ZINC000003798757   -0.1000
30     H30    -2.0478   -8.8627   -4.2321 H        1 ZINC000003798757    0.0900
31     C31    -4.0009   -8.8200   -5.2560 C.3      1 ZINC000003798757   -0.1100
32     C32    -5.2923   -8.0952   -4.8346 C.3      1 ZINC000003798757   -0.1200
33     C33    -5.0848   -7.6862   -3.3675 C.3      1 ZINC000003798757   -0.1300
34     C34    -3.5591   -7.7423   -3.0820 C.3      1 ZINC000003798757    0.1400
35     H35    -3.3521   -8.4502   -2.2794 H        1 ZINC000003798757    0.0700
36     H36     0.3547    1.9032    1.1572 H        1 ZINC000003798757    0.0800
37     H37    -0.5609    1.8376   -0.3678 H        1 ZINC000003798757    0.0700
38     H38    -1.4216    2.0157    1.1800 H        1 ZINC000003798757    0.0700
39     H39     0.1965   -0.4231    0.3135 H        1 ZINC000003798757    0.0700
40     H40    -0.6642   -0.2450    1.8613 H        1 ZINC000003798757    0.0700
41     H41    -4.6340   -2.0195    1.2921 H        1 ZINC000003798757    0.0700
42     H42    -4.5372   -0.6055    0.2152 H        1 ZINC000003798757    0.0800
43     H43    -5.8329   -1.8297   -1.5086 H        1 ZINC000003798757    0.0800
44     H44    -5.9297   -3.2436   -0.4317 H        1 ZINC000003798757    0.0900
45     H45    -7.3070   -3.1892    1.5695 H        1 ZINC000003798757    0.1200
46     H46    -9.2819   -2.2150    2.6711 H        1 ZINC000003798757    0.1200
47     H47   -10.1590   -0.0383    1.9255 H        1 ZINC000003798757    0.1200
48     H48    -9.0607    1.1645    0.0789 H        1 ZINC000003798757    0.1200
49     H49    -7.0830    0.1924   -1.0197 H        1 ZINC000003798757    0.1200
50     H50    -3.0478   -4.0325    0.6293 H        1 ZINC000003798757    0.3500
51     H51    -0.6231   -5.0938   -1.6870 H        1 ZINC000003798757    0.0500
52     H52    -0.7432   -3.4571   -0.9977 H        1 ZINC000003798757    0.0600
53     H53    -1.0517   -4.8793    0.0272 H        1 ZINC000003798757    0.0600
54     H54    -3.2281   -6.5309   -5.7698 H        1 ZINC000003798757    0.0800
55     H55    -1.5065   -6.9778   -5.5695 H        1 ZINC000003798757    0.0700
56     H56    -3.8022   -8.6545   -6.3149 H        1 ZINC000003798757    0.0700
57     H57    -4.0803   -9.8869   -5.0472 H        1 ZINC000003798757    0.0600
58     H58    -5.4460   -7.2109   -5.4532 H        1 ZINC000003798757    0.0700
59     H59    -6.1459   -8.7676   -4.9203 H        1 ZINC000003798757    0.0600
60     H60    -5.4556   -6.6736   -3.2085 H        1 ZINC000003798757    0.0800
61     H61    -5.6068   -8.3823   -2.7109 H        1 ZINC000003798757    0.0600
@<TRIPOS>BOND
1     1     2     1
2     1     36    1
3     1     37    1
4     1     38    1
5     2     3     1
6     2     39    1
7     2     40    1
8     3     4     1
9     4     5     2
10    4     6     1
11    6     7     1
12    6     8     1
13    6     16    1
14    8     9     1
15    8     41    1
16    8     42    1
17    9     10    1
18    9     43    1
19    9     44    1
20    10    15    ar
21    10    11    ar
22    11    12    ar
23    11    45    1
24    12    13    ar
25    12    46    1
26    13    14    ar
27    13    47    1
28    14    15    ar
29    14    48    1
30    15    49    1
31    16    17    1
32    16    50    1
33    17    18    1
34    17    19    1
35    17    20    1
36    19    51    1
37    19    52    1
38    19    53    1
39    20    21    2
40    20    22    am
41    22    34    1
42    22    23    1
43    23    24    1
44    23    25    1
45    23    28    1
46    25    26    ar
47    25    27    ar
48    28    29    1
49    28    54    1
50    28    55    1
51    29    30    1
52    29    34    1
53    29    31    1
54    31    32    1
55    31    56    1
56    31    57    1
57    32    33    1
58    32    58    1
59    32    59    1
60    33    34    1
61    33    60    1
62    33    61    1
63    34    35    1
@<TRIPOS>SUBSTRUCTURE
1   ZINC000003798757 1     RESIDUE    1   A     ZIN   1
