@<TRIPOS>MOLECULE
ZINC000095616599
54    57    1     0     0
SMALL
USER_CHARGES
@<TRIPOS>ATOM
1      C1     -0.0173    1.4248    0.0099 C.3      1 ZINC000095616599    0.0100
2      O2      0.0021   -0.0041    0.0020 O.3      1 ZINC000095616599   -0.2800
3      C3     -1.1998   -0.6372    0.0101 C.ar     1 ZINC000095616599    0.2200
4      C4     -1.2456   -2.0377    0.0088 C.ar     1 ZINC000095616599    0.1200
5      O5     -0.0860   -2.7486   -0.0009 O.3      1 ZINC000095616599   -0.2900
6      C6     -0.1983   -4.1732   -0.0017 C.3      1 ZINC000095616599    0.0100
7      C7     -2.4420   -2.6970    0.0178 C.ar     1 ZINC000095616599   -0.1200
8      C8     -3.6365   -1.9668    0.0279 C.ar     1 ZINC000095616599   -0.1800
9      C9     -4.9014   -2.6035    0.0379 C.ar     1 ZINC000095616599    0.5500
10     N10    -5.0000   -3.9794    0.0382 N.pl3    1 ZINC000095616599   -0.7700
11     N11    -5.9880   -1.8451    0.0475 N.ar     1 ZINC000095616599   -0.5800
12     C12    -5.9075   -0.5174    0.0478 C.ar     1 ZINC000095616599    0.6300
13     N13    -7.0798    0.2181    0.0585 N.3      1 ZINC000095616599   -0.4700
14     C14    -7.1052    1.1517    1.1924 C.3      1 ZINC000095616599    0.0300
15     C15    -8.3266    2.0686    1.0675 C.3      1 ZINC000095616599    0.1200
16     N16    -9.5270    1.2309    0.9247 N.am     1 ZINC000095616599   -0.6200
17     C17   -10.6020    1.4221    1.7148 C.2      1 ZINC000095616599    0.5100
18     O18   -10.5879    2.2943    2.5574 O.2      1 ZINC000095616599   -0.5000
19     C19   -11.8216    0.5522    1.5513 C.3      1 ZINC000095616599    0.0700
20     H20   -11.5426   -0.4972    1.6465 H        1 ZINC000095616599    0.1100
21     C21   -12.4606    0.8007    0.1681 C.3      1 ZINC000095616599   -0.1500
22     C22   -13.9786    0.7555    0.4933 C.3      1 ZINC000095616599   -0.1600
23     C23   -13.9933    1.3722    1.9147 C.3      1 ZINC000095616599    0.0500
24     O24   -12.7953    0.8883    2.5466 O.3      1 ZINC000095616599   -0.3500
25     C25    -9.5230    0.1786   -0.1029 C.3      1 ZINC000095616599    0.1000
26     C26    -8.2545   -0.6639    0.0680 C.3      1 ZINC000095616599    0.0500
27     N27    -4.7570    0.1273    0.0388 N.ar     1 ZINC000095616599   -0.5500
28     H28    -4.7479    1.0973    0.0397 H        1 ZINC000095616599    0.4400
29     C29    -3.5981   -0.5508    0.0287 C.ar     1 ZINC000095616599    0.2100
30     C30    -2.3609    0.1044    0.0252 C.ar     1 ZINC000095616599   -0.2300
31     H31     1.0053    1.8021    0.0021 H        1 ZINC000095616599    0.1200
32     H32    -0.5445    1.7859   -0.8732 H        1 ZINC000095616599    0.0700
33     H33    -0.5275    1.7763    0.9067 H        1 ZINC000095616599    0.0700
34     H34    -0.7460   -4.4940   -0.8878 H        1 ZINC000095616599    0.0600
35     H35     0.7976   -4.6162   -0.0099 H        1 ZINC000095616599    0.1200
36     H36    -0.7322   -4.4960    0.8921 H        1 ZINC000095616599    0.0600
37     H37    -2.4663   -3.7767    0.0168 H        1 ZINC000095616599    0.1600
38     H38    -4.1968   -4.5232    0.0314 H        1 ZINC000095616599    0.4300
39     H39    -5.8725   -4.4031    0.0451 H        1 ZINC000095616599    0.4300
40     H40    -7.1657    0.5901    2.1246 H        1 ZINC000095616599    0.0800
41     H41    -6.1965    1.7537    1.1883 H        1 ZINC000095616599    0.1000
42     H42    -8.4146    2.6851    1.9621 H        1 ZINC000095616599    0.1200
43     H43    -8.2180    2.7056    0.1897 H        1 ZINC000095616599    0.0900
44     H44   -12.1761    1.7785   -0.2206 H        1 ZINC000095616599    0.0800
45     H45   -12.1902    0.0101   -0.5319 H        1 ZINC000095616599    0.0900
46     H46   -14.5486    1.3670   -0.2062 H        1 ZINC000095616599    0.0900
47     H47   -14.3472   -0.2702    0.5063 H        1 ZINC000095616599    0.0900
48     H48   -13.9774    2.4604    1.8551 H        1 ZINC000095616599    0.0700
49     H49   -14.8724    1.0354    2.4641 H        1 ZINC000095616599    0.1000
50     H50   -10.4021   -0.4544    0.0179 H        1 ZINC000095616599    0.1100
51     H51    -9.5295    0.6340   -1.0932 H        1 ZINC000095616599    0.0900
52     H52    -8.1794   -1.3786   -0.7515 H        1 ZINC000095616599    0.1200
53     H53    -8.2990   -1.2001    1.0159 H        1 ZINC000095616599    0.0800
54     H54    -2.3169    1.1835    0.0304 H        1 ZINC000095616599    0.1700
@<TRIPOS>BOND
1     1     2     1
2     1     31    1
3     1     32    1
4     1     33    1
5     2     3     1
6     3     30    ar
7     3     4     ar
8     4     5     1
9     4     7     ar
10    5     6     1
11    6     34    1
12    6     35    1
13    6     36    1
14    7     8     ar
15    7     37    1
16    8     29    ar
17    8     9     ar
18    9     10    1
19    9     11    ar
20    10    38    1
21    10    39    1
22    11    12    ar
23    12    13    1
24    12    27    ar
25    13    26    1
26    13    14    1
27    14    15    1
28    14    40    1
29    14    41    1
30    15    16    1
31    15    42    1
32    15    43    1
33    16    17    am
34    16    25    1
35    17    18    2
36    17    19    1
37    19    20    1
38    19    24    1
39    19    21    1
40    21    22    1
41    21    44    1
42    21    45    1
43    22    23    1
44    22    46    1
45    22    47    1
46    23    24    1
47    23    48    1
48    23    49    1
49    25    26    1
50    25    50    1
51    25    51    1
52    26    52    1
53    26    53    1
54    27    28    1
55    27    29    ar
56    29    30    ar
57    30    54    1
@<TRIPOS>SUBSTRUCTURE
1   ZINC000095616599 1     RESIDUE    1   A     ZIN   1
