@<TRIPOS>MOLECULE
ZINC000003871967
39    41    1     0     0
SMALL
USER_CHARGES
@<TRIPOS>ATOM
1      N1     -1.5727   -4.2258   -4.7797 N.pl3    1 ZINC000003871967   -0.8200
2      C2     -1.1240   -4.0633   -3.4792 C.2      1 ZINC000003871967    0.3500
3      N3     -1.8267   -3.5876   -2.4982 N.2      1 ZINC000003871967   -0.5200
4      C4     -1.2259   -3.5051   -1.3120 C.2      1 ZINC000003871967    0.1800
5      C5     -1.9149   -2.9807   -0.1081 C.2      1 ZINC000003871967   -0.1500
6      C6     -1.3024   -3.0184    1.0854 C.2      1 ZINC000003871967    0.0100
7      C7     -2.0478   -2.6048    2.3282 C.3      1 ZINC000003871967   -0.1800
8      C8     -2.0468   -3.7425    3.3165 C.2      1 ZINC000003871967    0.5000
9      O9     -1.4923   -4.7919    3.0376 O.co2    1 ZINC000003871967   -0.6900
10     O10    -2.6005   -3.6135    4.3951 O.co2    1 ZINC000003871967   -0.7000
11     C11    -3.2755   -2.4167   -0.2227 C.2      1 ZINC000003871967    0.5900
12     O12    -4.2367   -3.1577   -0.2937 O.2      1 ZINC000003871967   -0.5200
13     N13    -3.4512   -1.0807   -0.2485 N.am     1 ZINC000003871967   -0.7000
14     C14    -4.8046   -0.5198   -0.2515 C.3      1 ZINC000003871967    0.1300
15     H15    -5.5410   -1.1872    0.1962 H        1 ZINC000003871967    0.1400
16     C16    -5.2292    0.0409   -1.5982 C.2      1 ZINC000003871967    0.5300
17     O17    -5.5819   -0.4526   -2.6485 O.2      1 ZINC000003871967   -0.4400
18     N18    -5.0591    1.3012   -1.1629 N.am     1 ZINC000003871967   -0.5600
19     C19    -4.8922    2.5869   -1.7059 C.2      1 ZINC000003871967    0.1000
20     C20    -5.5035    2.9244   -3.0016 C.2      1 ZINC000003871967    0.5200
21     O21    -5.3579    4.0437   -3.4737 O.co2    1 ZINC000003871967   -0.6800
22     O22    -6.1572    2.0856   -3.6066 O.co2    1 ZINC000003871967   -0.6500
23     C23    -4.1839    3.4959   -1.0493 C.2      1 ZINC000003871967   -0.2300
24     C24    -3.5308    3.3725    0.2879 C.3      1 ZINC000003871967   -0.0300
25     S25    -3.2800    1.6381    0.7744 S.3      1 ZINC000003871967   -0.2400
26     C26    -4.8756    0.9104    0.2736 C.3      1 ZINC000003871967    0.1300
27     H27    -5.7056    1.1354    0.9433 H        1 ZINC000003871967    0.1400
28     C28     0.0488   -3.9313   -1.2830 C.2      1 ZINC000003871967   -0.2800
29     S29     0.4864   -4.4777   -2.8999 S.3      1 ZINC000003871967    0.0200
30     H30    -0.9812   -4.5942   -5.4544 H        1 ZINC000003871967    0.4100
31     H31    -2.4797   -3.9749   -5.0146 H        1 ZINC000003871967    0.4100
32     H32    -0.2754   -3.3451    1.1553 H        1 ZINC000003871967    0.1300
33     H33    -1.5601   -1.7371    2.7725 H        1 ZINC000003871967    0.0900
34     H34    -3.0752   -2.3505    2.0680 H        1 ZINC000003871967    0.0700
35     H35    -2.6816   -0.4905   -0.2651 H        1 ZINC000003871967    0.4100
36     H36    -4.0636    4.4475   -1.5458 H        1 ZINC000003871967    0.1400
37     H37    -2.5636    3.8743    0.2567 H        1 ZINC000003871967    0.1100
38     H38    -4.1571    3.8619    1.0338 H        1 ZINC000003871967    0.0900
39     H39     0.6932   -3.9402   -0.4164 H        1 ZINC000003871967    0.1800
@<TRIPOS>BOND
1     1     2     1
2     1     30    1
3     1     31    1
4     2     29    1
5     2     3     2
6     3     4     1
7     4     5     1
8     4     28    2
9     5     6     2
10    5     11    1
11    6     7     1
12    6     32    1
13    7     8     1
14    7     33    1
15    7     34    1
16    8     9     ar
17    8     10    ar
18    11    12    2
19    11    13    am
20    13    14    1
21    13    35    1
22    14    15    1
23    14    26    1
24    14    16    1
25    16    17    2
26    16    18    am
27    18    26    1
28    18    19    1
29    19    20    1
30    19    23    2
31    20    21    ar
32    20    22    ar
33    23    24    1
34    23    36    1
35    24    25    1
36    24    37    1
37    24    38    1
38    25    26    1
39    26    27    1
40    28    29    1
41    28    39    1
@<TRIPOS>SUBSTRUCTURE
1   ZINC000003871967 1     RESIDUE    1   A     ZIN   1
