@<TRIPOS>MOLECULE
ZINC000096014710
49    49    1     0     0
SMALL
USER_CHARGES
@<TRIPOS>ATOM
1      C1      2.4726    0.7932    1.2397 C.3      1 ZINC000096014710   -0.1200
2      C2      2.0785   -0.6612    1.2156 C.2      1 ZINC000096014710   -0.0800
3      C3      1.3787   -1.2151    2.2950 C.2      1 ZINC000096014710   -0.0600
4      C4      0.9410   -0.4063    3.3195 C.2      1 ZINC000096014710   -0.1900
5      C5      0.2406   -0.9608    4.3999 C.2      1 ZINC000096014710   -0.0800
6      C6     -0.1933   -0.1589    5.4156 C.2      1 ZINC000096014710   -0.1300
7      C7     -1.0786   -0.7241    6.4962 C.3      1 ZINC000096014710   -0.1100
8      C8      0.1857    1.1944    5.4537 C.2      1 ZINC000096014710   -0.1000
9      C9      0.8611    1.6809    6.5280 C.2      1 ZINC000096014710   -0.1200
10     C10     1.3198    0.7967    7.5367 C.2      1 ZINC000096014710   -0.0900
11     C11     2.2219   -0.1123    7.2066 C.2      1 ZINC000096014710   -0.1000
12     C12     2.7109   -0.1440    5.7815 C.3      1 ZINC000096014710   -0.1500
13     C13     2.7867   -1.1138    8.1715 C.3      1 ZINC000096014710   -0.0800
14     C14     2.5137   -0.6707    9.6103 C.3      1 ZINC000096014710   -0.1200
15     C15     1.0267   -0.3184    9.7380 C.3      1 ZINC000096014710   -0.1100
16     C16     0.7587    0.9490    8.9206 C.3      1 ZINC000096014710   -0.0200
17     C17     1.4120    2.1467    9.6130 C.3      1 ZINC000096014710   -0.1400
18     C18    -0.7505    1.1822    8.8265 C.3      1 ZINC000096014710   -0.1500
19     C19     2.4063   -1.4452    0.1327 C.2      1 ZINC000096014710   -0.1400
20     C20     1.7783   -2.6878   -0.0503 C.2      1 ZINC000096014710    0.4400
21     O21     0.7652   -3.0458    0.7401 O.co2    1 ZINC000096014710   -0.6900
22     O22     2.1948   -3.5101   -1.0145 O.co2    1 ZINC000096014710   -0.7100
23     H23     3.4577    0.8952    1.6950 H        1 ZINC000096014710    0.0600
24     H24     2.5016    1.1787    0.2206 H        1 ZINC000096014710    0.0600
25     H25     1.7434    1.3576    1.8210 H        1 ZINC000096014710    0.0700
26     H26     1.1824   -2.2768    2.3236 H        1 ZINC000096014710    0.1700
27     H27     1.1373    0.6553    3.2909 H        1 ZINC000096014710    0.1100
28     H28     0.0444   -2.0224    4.4285 H        1 ZINC000096014710    0.1100
29     H29    -0.4643   -1.0517    7.3349 H        1 ZINC000096014710    0.0700
30     H30    -1.7750    0.0434    6.8338 H        1 ZINC000096014710    0.0600
31     H31    -1.6369   -1.5730    6.1014 H        1 ZINC000096014710    0.0600
32     H32    -0.0599    1.8474    4.6293 H        1 ZINC000096014710    0.1100
33     H33     1.0484    2.7411    6.6133 H        1 ZINC000096014710    0.1100
34     H34     3.5852    0.4994    5.6829 H        1 ZINC000096014710    0.0500
35     H35     2.9792   -1.1655    5.5121 H        1 ZINC000096014710    0.0600
36     H36     1.9218    0.2112    5.1187 H        1 ZINC000096014710    0.1000
37     H37     2.3222   -2.0845    7.9981 H        1 ZINC000096014710    0.0700
38     H38     3.8625   -1.1975    8.0172 H        1 ZINC000096014710    0.0700
39     H39     2.7579   -1.4822   10.2959 H        1 ZINC000096014710    0.0600
40     H40     3.1189    0.2050    9.8448 H        1 ZINC000096014710    0.0600
41     H41     0.4215   -1.1403    9.3553 H        1 ZINC000096014710    0.0600
42     H42     0.7821   -0.1363   10.7845 H        1 ZINC000096014710    0.0600
43     H43     2.4953    2.0265    9.6016 H        1 ZINC000096014710    0.0500
44     H44     1.1425    3.0622    9.0864 H        1 ZINC000096014710    0.0500
45     H45     1.0637    2.2047   10.6442 H        1 ZINC000096014710    0.0500
46     H46    -1.1319    1.4905    9.7999 H        1 ZINC000096014710    0.0500
47     H47    -0.9525    1.9630    8.0932 H        1 ZINC000096014710    0.0600
48     H48    -1.2423    0.2592    8.5193 H        1 ZINC000096014710    0.0700
49     H49     3.1466   -1.1047   -0.5762 H        1 ZINC000096014710    0.1100
@<TRIPOS>BOND
1     1     2     1
2     1     23    1
3     1     24    1
4     1     25    1
5     2     3     1
6     2     19    2
7     3     4     2
8     3     26    1
9     4     5     1
10    4     27    1
11    5     6     2
12    5     28    1
13    6     7     1
14    6     8     1
15    7     29    1
16    7     30    1
17    7     31    1
18    8     9     2
19    8     32    1
20    9     10    1
21    9     33    1
22    10    16    1
23    10    11    2
24    11    12    1
25    11    13    1
26    12    34    1
27    12    35    1
28    12    36    1
29    13    14    1
30    13    37    1
31    13    38    1
32    14    15    1
33    14    39    1
34    14    40    1
35    15    16    1
36    15    41    1
37    15    42    1
38    16    17    1
39    16    18    1
40    17    43    1
41    17    44    1
42    17    45    1
43    18    46    1
44    18    47    1
45    18    48    1
46    19    20    1
47    19    49    1
48    20    21    ar
49    20    22    ar
@<TRIPOS>SUBSTRUCTURE
1   ZINC000096014710 1     RESIDUE    1   A     ZIN   1
