@<TRIPOS>MOLECULE
ZINC000000897002
46    47    1     0     0
SMALL
USER_CHARGES
@<TRIPOS>ATOM
1      C1      4.5507    2.0308   -1.3924 C.3      1 ZINC000000897002   -0.1500
2      C2      3.6490    0.9350   -0.8205 C.3      1 ZINC000000897002   -0.1200
3      C3      3.2773   -0.0505   -1.9302 C.3      1 ZINC000000897002    0.0500
4      N4      2.4116   -1.1026   -1.3811 N.3      1 ZINC000000897002   -0.5100
5      C5      3.0114   -1.7061   -0.1842 C.3      1 ZINC000000897002    0.0500
6      C6      2.0219   -2.6913    0.4423 C.3      1 ZINC000000897002   -0.1200
7      C7      1.6738   -3.7770   -0.5798 C.3      1 ZINC000000897002   -0.1200
8      C8      1.0960   -3.1184   -1.8355 C.3      1 ZINC000000897002   -0.1100
9      C9      2.1123   -2.1208   -2.3960 C.3      1 ZINC000000897002    0.0700
10     H10     3.0285   -2.6473   -2.6635 H        1 ZINC000000897002    0.0600
11     C11     1.5397   -1.4554   -3.6209 C.2      1 ZINC000000897002    0.5200
12     O12     0.9193   -0.4188   -3.5138 O.2      1 ZINC000000897002   -0.4900
13     N13     1.7171   -2.0122   -4.8354 N.am     1 ZINC000000897002   -0.6800
14     C14     1.2870   -1.3381   -5.9837 C.ar     1 ZINC000000897002    0.1300
15     C15    -0.0409   -0.9505   -6.1067 C.ar     1 ZINC000000897002   -0.0600
16     C16    -1.0208   -1.2549   -5.0030 C.3      1 ZINC000000897002   -0.1100
17     C17    -0.4623   -0.2853   -7.2413 C.ar     1 ZINC000000897002   -0.1200
18     C18     0.4363   -0.0056   -8.2545 C.ar     1 ZINC000000897002   -0.1100
19     C19     1.7591   -0.3907   -8.1353 C.ar     1 ZINC000000897002   -0.1200
20     C20     2.1883   -1.0502   -7.0002 C.ar     1 ZINC000000897002   -0.0900
21     C21     3.6300   -1.4695   -6.8711 C.3      1 ZINC000000897002   -0.1100
22     H22     5.4571    1.5809   -1.7974 H        1 ZINC000000897002    0.0500
23     H23     4.0217    2.5593   -2.1855 H        1 ZINC000000897002    0.0600
24     H24     4.8155    2.7329   -0.6018 H        1 ZINC000000897002    0.0600
25     H25     4.1780    0.4064   -0.0274 H        1 ZINC000000897002    0.0600
26     H26     2.7426    1.3849   -0.4154 H        1 ZINC000000897002    0.0700
27     H27     2.7484    0.4781   -2.7233 H        1 ZINC000000897002    0.0900
28     H28     4.1838   -0.5004   -2.3352 H        1 ZINC000000897002    0.0300
29     H29     3.9233   -2.2346   -0.4621 H        1 ZINC000000897002    0.0300
30     H30     3.2503   -0.9238    0.5362 H        1 ZINC000000897002    0.0900
31     H31     2.4733   -3.1507    1.3217 H        1 ZINC000000897002    0.0700
32     H32     1.1151   -2.1610    0.7330 H        1 ZINC000000897002    0.0700
33     H33     2.5741   -4.3330   -0.8415 H        1 ZINC000000897002    0.0600
34     H34     0.9362   -4.4564   -0.1526 H        1 ZINC000000897002    0.0700
35     H35     0.8859   -3.8828   -2.5835 H        1 ZINC000000897002    0.0700
36     H36     0.1746   -2.5947   -1.5807 H        1 ZINC000000897002    0.0800
37     H37     2.1430   -2.8802   -4.9135 H        1 ZINC000000897002    0.4100
38     H38    -1.1233   -0.3827   -4.3573 H        1 ZINC000000897002    0.0900
39     H39    -1.9901   -1.5025   -5.4358 H        1 ZINC000000897002    0.0600
40     H40    -0.6579   -2.0997   -4.4176 H        1 ZINC000000897002    0.0600
41     H41    -1.4948    0.0164   -7.3376 H        1 ZINC000000897002    0.1300
42     H42     0.1043    0.5143   -9.1409 H        1 ZINC000000897002    0.1200
43     H43     2.4583   -0.1714   -8.9286 H        1 ZINC000000897002    0.1300
44     H44     4.2005   -0.6689   -6.4003 H        1 ZINC000000897002    0.0700
45     H45     3.6933   -2.3692   -6.2591 H        1 ZINC000000897002    0.0600
46     H46     4.0390   -1.6736   -7.8606 H        1 ZINC000000897002    0.0700
@<TRIPOS>BOND
1     1     2     1
2     1     22    1
3     1     23    1
4     1     24    1
5     2     3     1
6     2     25    1
7     2     26    1
8     3     4     1
9     3     27    1
10    3     28    1
11    4     9     1
12    4     5     1
13    5     6     1
14    5     29    1
15    5     30    1
16    6     7     1
17    6     31    1
18    6     32    1
19    7     8     1
20    7     33    1
21    7     34    1
22    8     9     1
23    8     35    1
24    8     36    1
25    9     10    1
26    9     11    1
27    11    12    2
28    11    13    am
29    13    14    1
30    13    37    1
31    14    20    ar
32    14    15    ar
33    15    16    1
34    15    17    ar
35    16    38    1
36    16    39    1
37    16    40    1
38    17    18    ar
39    17    41    1
40    18    19    ar
41    18    42    1
42    19    20    ar
43    19    43    1
44    20    21    1
45    21    44    1
46    21    45    1
47    21    46    1
@<TRIPOS>SUBSTRUCTURE
1   ZINC000000897002 1     RESIDUE    1   A     ZIN   1
