@<TRIPOS>MOLECULE
ZINC000003873371
40    42    1     0     0
SMALL
USER_CHARGES
@<TRIPOS>ATOM
1      Cl1    -1.6416   -0.0651    0.0209 Cl       1 ZINC000003873371   -0.0500
2      C2     -1.3747    1.6503    0.0147 C.ar     1 ZINC000003873371   -0.0200
3      C3     -2.4416    2.5172    0.1705 C.ar     1 ZINC000003873371   -0.1100
4      C4     -2.2285    3.8828    0.1655 C.ar     1 ZINC000003873371   -0.0900
5      C5     -0.9497    4.3825    0.0043 C.ar     1 ZINC000003873371   -0.0900
6      C6     -0.7181    5.8716   -0.0017 C.3      1 ZINC000003873371   -0.0600
7      S7     -0.4004    6.4409    1.6911 S.3      1 ZINC000003873371   -0.1900
8      C8     -0.0025    8.1960    1.4635 C.3      1 ZINC000003873371   -0.0600
9      H9      0.7875    8.2958    0.7192 H        1 ZINC000003873371    0.1400
10     C10    -1.2493    8.9441    0.9874 C.3      1 ZINC000003873371    0.1000
11     N11    -2.2978    8.8434    2.0056 N.pl3    1 ZINC000003873371   -0.4000
12     C12    -3.1973    7.8214    2.1469 C.2      1 ZINC000003873371    0.0400
13     C13    -3.9745    8.1296    3.2026 C.2      1 ZINC000003873371    0.0000
14     N14    -3.5608    9.3076    3.6926 N.pl3    1 ZINC000003873371   -0.4700
15     H15    -3.9469    9.7652    4.4558 H        1 ZINC000003873371    0.4600
16     C16    -2.5535    9.7387    2.9837 C.cat    1 ZINC000003873371    0.2900
17     C17     0.4640    8.7792    2.7725 C.ar     1 ZINC000003873371   -0.0900
18     C18     0.0718    8.2014    3.9650 C.ar     1 ZINC000003873371   -0.0900
19     C19     0.4989    8.7361    5.1662 C.ar     1 ZINC000003873371   -0.1000
20     C20     1.3196    9.8497    5.1750 C.ar     1 ZINC000003873371   -0.0100
21     Cl21    1.8564   10.5206    6.6835 Cl       1 ZINC000003873371   -0.0300
22     C22     1.7130   10.4282    3.9814 C.ar     1 ZINC000003873371   -0.0900
23     C23     1.2896    9.8897    2.7799 C.ar     1 ZINC000003873371   -0.0100
24     Cl24    1.7831   10.6147    1.2817 Cl       1 ZINC000003873371   -0.0400
25     C25     0.1169    3.5168   -0.1510 C.ar     1 ZINC000003873371   -0.0800
26     C26    -0.0942    2.1509   -0.1404 C.ar     1 ZINC000003873371   -0.1100
27     H27    -3.4408    2.1270    0.2958 H        1 ZINC000003873371    0.1400
28     H28    -3.0613    4.5596    0.2871 H        1 ZINC000003873371    0.1300
29     H29     0.1419    6.1030   -0.6302 H        1 ZINC000003873371    0.1000
30     H30    -1.6013    6.3751   -0.3946 H        1 ZINC000003873371    0.0900
31     H31    -1.0028    9.9929    0.8221 H        1 ZINC000003873371    0.1300
32     H32    -1.6040    8.5031    0.0558 H        1 ZINC000003873371    0.1300
33     H33    -3.2701    6.9379    1.5300 H        1 ZINC000003873371    0.2200
34     H34    -4.7883    7.5328    3.5873 H        1 ZINC000003873371    0.2200
35     H35    -2.0175   10.6619    3.1479 H        1 ZINC000003873371    0.2500
36     H36    -0.5690    7.3320    3.9586 H        1 ZINC000003873371    0.1500
37     H37     0.1915    8.2846    6.0979 H        1 ZINC000003873371    0.1500
38     H38     2.3537   11.2976    3.9878 H        1 ZINC000003873371    0.1600
39     H39     1.1157    3.9077   -0.2769 H        1 ZINC000003873371    0.1400
40     H40     0.7391    1.4746   -0.2614 H        1 ZINC000003873371    0.1400
@<TRIPOS>BOND
1     1     2     1
2     2     26    ar
3     2     3     ar
4     3     4     ar
5     3     27    1
6     4     5     ar
7     4     28    1
8     5     6     1
9     5     25    ar
10    6     7     1
11    6     29    1
12    6     30    1
13    7     8     1
14    8     9     1
15    8     10    1
16    8     17    1
17    10    11    1
18    10    31    1
19    10    32    1
20    11    16    ar
21    11    12    1
22    12    13    2
23    12    33    1
24    13    14    1
25    13    34    1
26    14    15    1
27    14    16    ar
28    16    35    1
29    17    23    ar
30    17    18    ar
31    18    19    ar
32    18    36    1
33    19    20    ar
34    19    37    1
35    20    21    1
36    20    22    ar
37    22    23    ar
38    22    38    1
39    23    24    1
40    25    26    ar
41    25    39    1
42    26    40    1
@<TRIPOS>SUBSTRUCTURE
1   ZINC000003873371 1     RESIDUE    1   A     ZIN   1
