@<TRIPOS>MOLECULE
ZINC000001550499
49    51    1     0     0
SMALL
USER_CHARGES
@<TRIPOS>ATOM
1      C1     -0.0187    1.5258    0.0104 C.3      1 ZINC000001550499   -0.1800
2      C2      0.0021   -0.0041    0.0020 C.3      1 ZINC000001550499    0.0800
3      H3      0.5123   -0.3556   -0.8948 H        1 ZINC000001550499    0.1500
4      N4      0.7126   -0.4907    1.1921 N.4      1 ZINC000001550499   -0.5100
5      H5      0.2897   -0.0986    2.0201 H        1 ZINC000001550499    0.4300
6      H6      0.6554   -1.4974    1.2298 H        1 ZINC000001550499    0.4300
7      C7      2.1220   -0.0825    1.1220 C.3      1 ZINC000001550499   -0.0100
8      C8      2.8620   -0.5894    2.3615 C.3      1 ZINC000001550499   -0.1500
9      C9      4.3299   -0.1643    2.2885 C.3      1 ZINC000001550499   -0.0700
10     C10     5.0588   -0.6635    3.5094 C.ar     1 ZINC000001550499   -0.1000
11     C11     5.1225    0.1214    4.6453 C.ar     1 ZINC000001550499   -0.0800
12     C12     5.7912   -0.3366    5.7654 C.ar     1 ZINC000001550499   -0.1100
13     C13     6.3956   -1.5795    5.7494 C.ar     1 ZINC000001550499   -0.0700
14     C14     6.3311   -2.3650    4.6135 C.ar     1 ZINC000001550499   -0.1800
15     C15     6.9905   -3.7200    4.5958 C.3      1 ZINC000001550499    0.5100
16     F16     7.5988   -3.9587    5.8328 F        1 ZINC000001550499   -0.1700
17     F17     6.0268   -4.7044    4.3524 F        1 ZINC000001550499   -0.1800
18     F18     7.9580   -3.7546    3.5860 F        1 ZINC000001550499   -0.1700
19     C19     5.6589   -1.9089    3.4952 C.ar     1 ZINC000001550499   -0.0700
20     C20    -1.4117   -0.5257    0.0127 C.ar     1 ZINC000001550499   -0.1300
21     C21    -2.1204   -0.6697   -1.1919 C.ar     1 ZINC000001550499   -0.0300
22     C22    -1.5372   -0.3358   -2.4263 C.ar     1 ZINC000001550499   -0.1300
23     C23    -2.2540   -0.4889   -3.5729 C.ar     1 ZINC000001550499   -0.0900
24     C24    -3.5610   -0.9723   -3.5433 C.ar     1 ZINC000001550499   -0.1100
25     C25    -4.1584   -1.3054   -2.3668 C.ar     1 ZINC000001550499   -0.0900
26     C26    -3.4494   -1.1619   -1.1617 C.ar     1 ZINC000001550499   -0.0500
27     C27    -4.0324   -1.4958    0.0722 C.ar     1 ZINC000001550499   -0.0700
28     C28    -3.3150   -1.3440    1.2191 C.ar     1 ZINC000001550499   -0.1200
29     C29    -2.0069   -0.8650    1.1890 C.ar     1 ZINC000001550499   -0.1100
30     H30     1.0039    1.9031    0.0027 H        1 ZINC000001550499    0.0900
31     H31    -0.5459    1.8868   -0.8726 H        1 ZINC000001550499    0.1100
32     H32    -0.5289    1.8773    0.9072 H        1 ZINC000001550499    0.0800
33     H33     2.5788   -0.5061    0.2276 H        1 ZINC000001550499    0.1400
34     H34     2.1837    1.0050    1.0814 H        1 ZINC000001550499    0.1400
35     H35     2.4051   -0.1658    3.2560 H        1 ZINC000001550499    0.0900
36     H36     2.8002   -1.6769    2.4022 H        1 ZINC000001550499    0.0900
37     H37     4.7868   -0.5878    1.3941 H        1 ZINC000001550499    0.0900
38     H38     4.3917    0.9232    2.2479 H        1 ZINC000001550499    0.0900
39     H39     4.6502    1.0925    4.6578 H        1 ZINC000001550499    0.1300
40     H40     5.8415    0.2769    6.6527 H        1 ZINC000001550499    0.1400
41     H41     6.9185   -1.9370    6.6241 H        1 ZINC000001550499    0.1400
42     H42     5.6085   -2.5225    2.6078 H        1 ZINC000001550499    0.1300
43     H43    -0.5257    0.0406   -2.4646 H        1 ZINC000001550499    0.1300
44     H44    -1.8035   -0.2315   -4.5201 H        1 ZINC000001550499    0.1300
45     H45    -4.1079   -1.0838   -4.4678 H        1 ZINC000001550499    0.1300
46     H46    -5.1720   -1.6780   -2.3591 H        1 ZINC000001550499    0.1400
47     H47    -5.0445   -1.8706    0.1106 H        1 ZINC000001550499    0.1400
48     H48    -3.7657   -1.6011    2.1663 H        1 ZINC000001550499    0.1400
49     H49    -1.4596   -0.7543    2.1134 H        1 ZINC000001550499    0.1200
@<TRIPOS>BOND
1     1     2     1
2     1     30    1
3     1     31    1
4     1     32    1
5     2     3     1
6     2     4     1
7     2     20    1
8     4     5     1
9     4     6     1
10    4     7     1
11    7     8     1
12    7     33    1
13    7     34    1
14    8     9     1
15    8     35    1
16    8     36    1
17    9     10    1
18    9     37    1
19    9     38    1
20    10    19    ar
21    10    11    ar
22    11    12    ar
23    11    39    1
24    12    13    ar
25    12    40    1
26    13    14    ar
27    13    41    1
28    14    15    1
29    14    19    ar
30    15    16    1
31    15    17    1
32    15    18    1
33    19    42    1
34    20    29    ar
35    20    21    ar
36    21    26    ar
37    21    22    ar
38    22    23    ar
39    22    43    1
40    23    24    ar
41    23    44    1
42    24    25    ar
43    24    45    1
44    25    26    ar
45    25    46    1
46    26    27    ar
47    27    28    ar
48    27    47    1
49    28    29    ar
50    28    48    1
51    29    49    1
@<TRIPOS>SUBSTRUCTURE
1   ZINC000001550499 1     RESIDUE    1   A     ZIN   1
