@<TRIPOS>MOLECULE
ZINC000000007782
25   26    0    0    0
SMALL
USER_CHARGES
NO_NAME
@<TRIPOS>ATOM
1 N1       -0.0162     1.3436     0.0094 N.am   1 <0>      -0.8400
2 C2        0.0021    -0.0041     0.0020 C.2    1 <0>       0.6100
3 O3        1.0632    -0.5976    -0.0113 O.2    1 <0>      -0.5400
4 C4       -1.2653    -0.7590     0.0101 C.2    1 <0>      -0.1100
5 C5       -1.3842    -2.1198     0.0094 C.2    1 <0>       0.1000
6 N6       -2.7036    -2.3966     0.0188 N.pl3  1 <0>      -0.3600
7 C7       -3.3168    -3.7271     0.0218 C.3    1 <0>       0.1700
8 C8       -4.2585    -3.8435     1.1926 C.ar   1 <0>      -0.2000
9 C9       -3.7935    -4.3033     2.4125 C.ar   1 <0>       0.1500
10 F10      -2.4948    -4.6476     2.5544 F      1 <0>      -0.1300
11 C11      -4.6598    -4.4099     3.4875 C.ar   1 <0>      -0.1700
12 C12      -5.9883    -4.0574     3.3428 C.ar   1 <0>      -0.0400
13 C13      -6.4537    -3.5981     2.1252 C.ar   1 <0>      -0.1700
14 C14      -5.5880    -3.4853     1.0503 C.ar   1 <0>       0.1700
15 F15      -6.0431    -3.0359    -0.1397 F      1 <0>      -0.1200
16 N16      -3.3760    -1.1663     0.0252 N.2    1 <0>      -0.0500
17 N17      -2.4983    -0.2242     0.0252 N.2    1 <0>      -0.2000
18 H18       0.8172     1.8399     0.0041 H      1 <0>       0.4100
19 H19      -0.8627     1.8171     0.0160 H      1 <0>       0.4100
20 H20      -0.5762    -2.8364     0.0026 H      1 <0>       0.2100
21 H21      -3.8702    -3.8742    -0.9056 H      1 <0>       0.1200
22 H22      -2.5385    -4.4857     0.1048 H      1 <0>       0.1200
23 H23      -4.2972    -4.7690     4.4394 H      1 <0>       0.1500
24 H24      -6.6633    -4.1412     4.1817 H      1 <0>       0.1500
25 H25      -7.4921    -3.3232     2.0131 H      1 <0>       0.1500
@<TRIPOS>BOND
1    1    2 am
2    1   18 1
3    1   19 1
4    2    3 2
5    2    4 1
6    4   17 1
7    4    5 2
8    5    6 1
9    5   20 1
10    6    7 1
11    6   16 1
12    7    8 1
13    7   21 1
14    7   22 1
15    8   14 ar
16    8    9 ar
17    9   10 1
18    9   11 ar
19   11   12 ar
20   11   23 1
21   12   13 ar
22   12   24 1
23   13   14 ar
24   13   25 1
25   14   15 1
26   16   17 2
