@<TRIPOS>MOLECULE
ZINC000000002176
46   47    0    0    0
SMALL
USER_CHARGES
NO_NAME
@<TRIPOS>ATOM
1 C1        0.4406    -0.0511     0.8376 C.3    1 <0>      -0.1800
2 C2        0.7028    -1.5503     0.6812 C.3    1 <0>       0.0500
3 C3        1.6551    -2.0192     1.7831 C.3    1 <0>      -0.1800
4 C4       -0.6188    -2.3134     0.7904 C.3    1 <0>      -0.1800
5 N5        1.3093    -1.8069    -0.6320 N.4    1 <0>      -0.5000
6 H6        1.4823    -2.7956    -0.7352 H      1 <0>       0.4300
7 H7        0.6813    -1.4976    -1.3587 H      1 <0>       0.4300
8 C8        2.5782    -1.0742    -0.7369 C.3    1 <0>      -0.0500
9 C9        3.2099    -1.3414    -2.1045 C.3    1 <0>       0.0900
10 H10       2.5315    -1.0074    -2.8896 H      1 <0>       0.1400
11 O11       3.4549    -2.7416    -2.2507 O.3    1 <0>      -0.5400
12 C12       4.5315    -0.5783    -2.2138 C.3    1 <0>       0.0300
13 O13       5.0637    -0.7335    -3.5308 O.3    1 <0>      -0.2700
14 C14       6.2445    -0.1129    -3.7969 C.2    1 <0>       0.2500
15 N15       6.8780     0.5921    -2.8967 N.2    1 <0>      -0.5000
16 S16       8.2833     1.1754    -3.6464 S.3    1 <0>       0.4200
17 N17       7.9855     0.4568    -5.1539 N.2    1 <0>      -0.5000
18 C18       6.8554    -0.1922    -5.0365 C.2    1 <0>       0.3600
19 N19       6.2954    -0.9127    -6.0991 N.pl3  1 <0>      -0.5800
20 C20       4.9428    -1.4832    -5.9979 C.3    1 <0>       0.0800
21 C21       4.1457    -1.0602    -7.2372 C.3    1 <0>       0.0500
22 O22       4.8893    -1.3940    -8.4116 O.3    1 <0>      -0.3800
23 C23       6.1428    -0.7157    -8.5232 C.3    1 <0>       0.0500
24 C24       7.0400    -1.1163    -7.3519 C.3    1 <0>       0.0900
25 H25       1.3821     0.4925     0.7598 H      1 <0>       0.0800
26 H26      -0.2378     0.2829     0.0526 H      1 <0>       0.0800
27 H27      -0.0095     0.1393     1.8120 H      1 <0>       0.1100
28 H28       1.2051    -1.8288     2.7575 H      1 <0>       0.1100
29 H29       1.8420    -3.0873     1.6716 H      1 <0>       0.0800
30 H30       2.5966    -1.4756     1.7053 H      1 <0>       0.0800
31 H31      -1.2972    -1.9794     0.0054 H      1 <0>       0.0800
32 H32      -0.4319    -3.3815     0.6789 H      1 <0>       0.0800
33 H33      -1.0688    -2.1230     1.7648 H      1 <0>       0.1100
34 H34       2.3914    -0.0061    -0.6254 H      1 <0>       0.1500
35 H35       3.2566    -1.4082     0.0482 H      1 <0>       0.1400
36 H36       4.0519    -3.1081    -1.5841 H      1 <0>       0.3900
37 H37       4.3580     0.4792    -2.0143 H      1 <0>       0.0900
38 H38       5.2406    -0.9737    -1.4864 H      1 <0>       0.0900
39 H39       5.0052    -2.5705    -5.9551 H      1 <0>       0.0800
40 H40       4.4522    -1.1075    -5.1000 H      1 <0>       0.1100
41 H41       3.1894    -1.5830    -7.2509 H      1 <0>       0.1100
42 H42       3.9730     0.0157    -7.2092 H      1 <0>       0.0600
43 H43       6.6233    -0.9908    -9.4621 H      1 <0>       0.1100
44 H44       5.9773     0.3614    -8.4999 H      1 <0>       0.0600
45 H45       7.9391    -0.5001    -7.3507 H      1 <0>       0.1000
46 H46       7.3148    -2.1672    -7.4426 H      1 <0>       0.0800
@<TRIPOS>BOND
1    1    2 1
2    1   25 1
3    1   26 1
4    1   27 1
5    2    3 1
6    2    4 1
7    2    5 1
8    3   28 1
9    3   29 1
10    3   30 1
11    4   31 1
12    4   32 1
13    4   33 1
14    5    6 1
15    5    7 1
16    5    8 1
17    8    9 1
18    8   34 1
19    8   35 1
20    9   10 1
21    9   11 1
22    9   12 1
23   11   36 1
24   12   13 1
25   12   37 1
26   12   38 1
27   13   14 1
28   14   18 1
29   14   15 2
30   15   16 1
31   16   17 1
32   17   18 2
33   18   19 1
34   19   24 1
35   19   20 1
36   20   21 1
37   20   39 1
38   20   40 1
39   21   22 1
40   21   41 1
41   21   42 1
42   22   23 1
43   23   24 1
44   23   43 1
45   23   44 1
46   24   45 1
47   24   46 1
