@<TRIPOS>MOLECULE
ZINC000001850377
46   48    0    0    0
SMALL
USER_CHARGES
NO_NAME
@<TRIPOS>ATOM
1 C1        2.1974     3.0332     1.4953 C.3    1 <0>      -0.1200
2 C2        2.0593     1.5490     1.1505 C.3    1 <0>      -0.0600
3 C3        0.8981     1.1930     0.2199 C.3    1 <0>      -0.1100
4 C4        3.3459     0.7312     1.0202 C.3    1 <0>      -0.1000
5 H5        4.2907     1.2507     1.1801 H      1 <0>       0.1400
6 C6        3.3730    -0.3630    -0.0156 C.2    1 <0>      -0.0900
7 C7        4.2578    -0.3275    -0.9854 C.2    1 <0>      -0.0300
8 Cl8       5.3962     0.9802    -1.0742 Cl     1 <0>      -0.0300
9 Cl9       4.2890    -1.5880    -2.1786 Cl     1 <0>      -0.0300
10 C10       2.4338     0.5344     2.2328 C.3    1 <0>      -0.1500
11 H11       2.7786     0.9244     3.1905 H      1 <0>       0.1400
12 C12       1.6316    -0.7395     2.3006 C.2    1 <0>       0.4900
13 O13       0.7312    -0.9288     1.5174 O.2    1 <0>      -0.5000
14 O14       1.9173    -1.6639     3.2310 O.3    1 <0>      -0.3400
15 C15       1.1033    -2.8662     3.2373 C.3    1 <0>       0.1100
16 C16       1.5670    -3.7809     4.3417 C.ar   1 <0>      -0.0600
17 C17       2.5510    -4.7197     4.0935 C.ar   1 <0>      -0.1300
18 C18       2.9787    -5.5606     5.1046 C.ar   1 <0>      -0.0800
19 C19       2.4239    -5.4640     6.3657 C.ar   1 <0>      -0.1300
20 C20       1.4363    -4.5221     6.6177 C.ar   1 <0>       0.1200
21 O21       0.8891    -4.4247     7.8577 O.3    1 <0>      -0.2600
22 C22      -0.0815    -3.4945     8.0554 C.ar   1 <0>       0.0800
23 C23      -1.4134    -3.8255     7.8507 C.ar   1 <0>      -0.1300
24 C24      -2.3982    -2.8780     8.0524 C.ar   1 <0>      -0.1100
25 C25      -2.0576    -1.6006     8.4575 C.ar   1 <0>      -0.1200
26 C26      -0.7311    -1.2681     8.6618 C.ar   1 <0>      -0.1100
27 C27       0.2570    -2.2137     8.4679 C.ar   1 <0>      -0.1200
28 C28       1.0124    -3.6766     5.6028 C.ar   1 <0>      -0.1700
29 H29       3.2346     3.2523     1.7489 H      1 <0>       0.0600
30 H30       1.8983     3.6349     0.6371 H      1 <0>       0.0700
31 H31       1.5577     3.2697     2.3456 H      1 <0>       0.0700
32 H32       0.7458     2.0004    -0.4962 H      1 <0>       0.0600
33 H33       1.1303     0.2720    -0.3149 H      1 <0>       0.0700
34 H34      -0.0089     1.0528     0.8079 H      1 <0>       0.0700
35 H35       2.6647    -1.1765     0.0397 H      1 <0>       0.1500
36 H36       0.0598    -2.5977     3.4020 H      1 <0>       0.0800
37 H37       1.2005    -3.3758     2.2787 H      1 <0>       0.0800
38 H38       2.9861    -4.7968     3.1080 H      1 <0>       0.1300
39 H39       3.7471    -6.2936     4.9079 H      1 <0>       0.1400
40 H40       2.7580    -6.1211     7.1550 H      1 <0>       0.1400
41 H41      -1.6799    -4.8229     7.5336 H      1 <0>       0.1300
42 H42      -3.4350    -3.1351     7.8931 H      1 <0>       0.1300
43 H43      -2.8290    -0.8612     8.6142 H      1 <0>       0.1300
44 H44      -0.4678    -0.2695     8.9778 H      1 <0>       0.1300
45 H45       1.2930    -1.9534     8.6276 H      1 <0>       0.1300
46 H46       0.2442    -2.9425     5.7963 H      1 <0>       0.1300
@<TRIPOS>BOND
1    1    2 1
2    1   29 1
3    1   30 1
4    1   31 1
5    2   10 1
6    2    3 1
7    2    4 1
8    3   32 1
9    3   33 1
10    3   34 1
11    4    5 1
12    4    6 1
13    4   10 1
14    6    7 2
15    6   35 1
16    7    8 1
17    7    9 1
18   10   11 1
19   10   12 1
20   12   13 2
21   12   14 1
22   14   15 1
23   15   16 1
24   15   36 1
25   15   37 1
26   16   28 ar
27   16   17 ar
28   17   18 ar
29   17   38 1
30   18   19 ar
31   18   39 1
32   19   20 ar
33   19   40 1
34   20   21 1
35   20   28 ar
36   21   22 1
37   22   27 ar
38   22   23 ar
39   23   24 ar
40   23   41 1
41   24   25 ar
42   24   42 1
43   25   26 ar
44   25   43 1
45   26   27 ar
46   26   44 1
47   27   45 1
48   28   46 1
