@<TRIPOS>MOLECULE
ZINC000006661227
21   21    0    0    0
SMALL
USER_CHARGES
NO_NAME
@<TRIPOS>ATOM
1 N1       -0.0116     1.0048     0.0076 N.4    1 <0>      -0.6200
2 H2        0.0021    -0.0041     0.0020 H      1 <0>       0.4300
3 H3        0.9350     1.3541     0.0004 H      1 <0>       0.4500
4 H4       -0.4996     1.3391    -0.8099 H      1 <0>       0.4000
5 C5       -0.6992     1.4786     1.2162 C.3    1 <0>      -0.0500
6 H6       -0.7140     2.5685     1.2222 H      1 <0>       0.1400
7 C7       -2.1346     0.9490     1.2270 C.3    1 <0>      -0.0600
8 C8       -2.8990     1.5459     0.0736 C.2    1 <0>       0.0200
9 C9       -3.5238     2.7387     0.0562 C.2    1 <0>       0.0300
10 N10      -4.0828     2.8968    -1.1528 N.pl3  1 <0>      -0.4700
11 H11      -4.5952     3.6694    -1.4378 H      1 <0>       0.4700
12 C12      -3.8280     1.8472    -1.8852 C.cat  1 <0>       0.3200
13 N13      -3.0866     0.9825    -1.1597 N.pl3  1 <0>      -0.5200
14 C14       0.0297     0.9794     2.4371 C.2    1 <0>       0.4900
15 O15       1.0293     0.2926     2.3120 O.co2  1 <0>      -0.6500
16 O16      -0.3802     1.2622     3.5499 O.co2  1 <0>      -0.6200
17 H17      -2.1220    -0.1367     1.1315 H      1 <0>       0.1200
18 H18      -2.6169     1.2257     2.1646 H      1 <0>       0.1600
19 H19      -3.5673     3.4444     0.8726 H      1 <0>       0.2300
20 H20      -4.1529     1.6968    -2.9042 H      1 <0>       0.2700
21 H21      -2.7546     0.1204    -1.4552 H      1 <0>       0.4600
@<TRIPOS>BOND
1    1    2 1
2    1    3 1
3    1    4 1
4    1    5 1
5    5    6 1
6    5    7 1
7    5   14 1
8    7    8 1
9    7   17 1
10    7   18 1
11    8   13 1
12    8    9 2
13    9   10 1
14    9   19 1
15   10   11 1
16   10   12 ar
17   12   13 ar
18   12   20 1
19   13   21 1
20   14   15 ar
21   14   16 ar
