@<TRIPOS>MOLECULE
ZINC000001530760
53    54    1     0     0
SMALL
USER_CHARGES
@<TRIPOS>ATOM
1      C1     -0.0187    1.5258    0.0104 C.3      1 ZINC000001530760   -0.1600
2      C2      0.0021   -0.0041    0.0020 C.3      1 ZINC000001530760   -0.1500
3      C3      0.7421   -0.5109    1.2415 C.3      1 ZINC000001530760   -0.0100
4      N4      0.7620   -1.9797    1.2335 N.4      1 ZINC000001530760   -0.5000
5      H5     -0.1846   -2.3290    1.2406 H        1 ZINC000001530760    0.4300
6      H6      1.2343   -2.3051    0.4033 H        1 ZINC000001530760    0.4300
7      C7      1.4725   -2.4664    2.4236 C.3      1 ZINC000001530760   -0.0400
8      C8      1.4932   -3.9962    2.4152 C.3      1 ZINC000001530760    0.0900
9      H9      0.4737   -4.3730    2.3333 H        1 ZINC000001530760    0.1400
10     O10     2.2618   -4.4560    1.3017 O.3      1 ZINC000001530760   -0.5400
11     C11     2.1222   -4.5049    3.7138 C.3      1 ZINC000001530760    0.0200
12     O12     2.0363   -5.9306    3.7582 O.3      1 ZINC000001530760   -0.2700
13     C13     2.5518   -6.5447    4.8518 C.ar     1 ZINC000001530760    0.1700
14     C14     3.1245   -5.7942    5.8672 C.ar     1 ZINC000001530760   -0.2300
15     C15     3.6491   -6.4208    6.9804 C.ar     1 ZINC000001530760   -0.0500
16     C16     3.6082   -7.8014    7.0939 C.ar     1 ZINC000001530760   -0.1600
17     C17     3.0433   -8.5649    6.0967 C.ar     1 ZINC000001530760   -0.0300
18     C18     2.5030   -7.9441    4.9644 C.ar     1 ZINC000001530760   -0.2000
19     C19     1.8986   -8.7506    3.8972 C.2      1 ZINC000001530760    0.4000
20     O20     1.4316   -8.2084    2.9177 O.2      1 ZINC000001530760   -0.4400
21     C21     1.8583  -10.2522    4.0183 C.3      1 ZINC000001530760   -0.1600
22     C22     1.1812  -10.8457    2.7814 C.3      1 ZINC000001530760   -0.0700
23     C23     1.1409  -12.3472    2.9025 C.ar     1 ZINC000001530760   -0.0900
24     C24     2.1875  -13.1082    2.4163 C.ar     1 ZINC000001530760   -0.1200
25     C25     2.1506  -14.4856    2.5275 C.ar     1 ZINC000001530760   -0.1200
26     C26     1.0672  -15.1020    3.1252 C.ar     1 ZINC000001530760   -0.1200
27     C27     0.0210  -14.3409    3.6122 C.ar     1 ZINC000001530760   -0.1200
28     C28     0.0599  -12.9633    3.5049 C.ar     1 ZINC000001530760   -0.1200
29     H29     1.0039    1.9031    0.0027 H        1 ZINC000001530760    0.0700
30     H30    -0.5459    1.8868   -0.8726 H        1 ZINC000001530760    0.0800
31     H31    -0.5289    1.8773    0.9072 H        1 ZINC000001530760    0.0700
32     H32    -1.0205   -0.3814    0.0098 H        1 ZINC000001530760    0.0900
33     H33     0.5123   -0.3556   -0.8948 H        1 ZINC000001530760    0.0900
34     H34     1.7647   -0.1336    1.2338 H        1 ZINC000001530760    0.1300
35     H35     0.2319   -0.1594    2.1383 H        1 ZINC000001530760    0.1300
36     H36     2.4951   -2.0891    2.4158 H        1 ZINC000001530760    0.1400
37     H37     0.9623   -2.1149    3.3204 H        1 ZINC000001530760    0.1500
38     H38     3.1818   -4.1582    1.3089 H        1 ZINC000001530760    0.3900
39     H39     3.1686   -4.2025    3.7535 H        1 ZINC000001530760    0.0800
40     H40     1.5893   -4.0821    4.5656 H        1 ZINC000001530760    0.0800
41     H41     3.1608   -4.7177    5.7873 H        1 ZINC000001530760    0.1300
42     H42     4.0946   -5.8309    7.7678 H        1 ZINC000001530760    0.1300
43     H43     4.0218   -8.2809    7.9688 H        1 ZINC000001530760    0.1400
44     H44     3.0138   -9.6405    6.1898 H        1 ZINC000001530760    0.1400
45     H45     2.8749  -10.6378    4.0963 H        1 ZINC000001530760    0.1000
46     H46     1.2951  -10.5298    4.9093 H        1 ZINC000001530760    0.1000
47     H47     0.1646  -10.4600    2.7034 H        1 ZINC000001530760    0.0800
48     H48     1.7444  -10.5680    1.8904 H        1 ZINC000001530760    0.0800
49     H49     3.0339  -12.6266    1.9494 H        1 ZINC000001530760    0.1200
50     H50     2.9680  -15.0801    2.1470 H        1 ZINC000001530760    0.1200
51     H51     1.0380  -16.1781    3.2114 H        1 ZINC000001530760    0.1200
52     H52    -0.8256  -14.8225    4.0789 H        1 ZINC000001530760    0.1200
53     H53    -0.7575  -12.3687    3.8854 H        1 ZINC000001530760    0.1200
@<TRIPOS>BOND
1     1     2     1
2     1     29    1
3     1     30    1
4     1     31    1
5     2     3     1
6     2     32    1
7     2     33    1
8     3     4     1
9     3     34    1
10    3     35    1
11    4     5     1
12    4     6     1
13    4     7     1
14    7     8     1
15    7     36    1
16    7     37    1
17    8     9     1
18    8     10    1
19    8     11    1
20    10    38    1
21    11    12    1
22    11    39    1
23    11    40    1
24    12    13    1
25    13    18    ar
26    13    14    ar
27    14    15    ar
28    14    41    1
29    15    16    ar
30    15    42    1
31    16    17    ar
32    16    43    1
33    17    18    ar
34    17    44    1
35    18    19    1
36    19    20    2
37    19    21    1
38    21    22    1
39    21    45    1
40    21    46    1
41    22    23    1
42    22    47    1
43    22    48    1
44    23    28    ar
45    23    24    ar
46    24    25    ar
47    24    49    1
48    25    26    ar
49    25    50    1
50    26    27    ar
51    26    51    1
52    27    28    ar
53    27    52    1
54    28    53    1
@<TRIPOS>SUBSTRUCTURE
1   ZINC000001530760 1     RESIDUE    1   A     ZIN   1
