@<TRIPOS>MOLECULE
ZINC000000057001
28    28    1     0     0
SMALL
USER_CHARGES
@<TRIPOS>ATOM
1      C1     -0.0187    1.5258    0.0104 C.3      1 ZINC000000057001   -0.1500
2      C2      0.0021   -0.0041    0.0020 C.3      1 ZINC000000057001   -0.0900
3      H3     -1.0205   -0.3814    0.0098 H        1 ZINC000000057001    0.1000
4      C4      0.7421   -0.5109    1.2415 C.3      1 ZINC000000057001   -0.0400
5      S5     -0.1871   -0.0517    2.7303 S.3      1 ZINC000000057001   -0.2500
6      C6      0.7074   -0.4901   -1.2379 C.2      1 ZINC000000057001    0.5400
7      O7      1.7039   -1.1744   -1.1398 O.2      1 ZINC000000057001   -0.5400
8      N8      0.2309   -0.1642   -2.4557 N.am     1 ZINC000000057001   -0.5900
9      C9     -0.9612    0.6622   -2.7190 C.3      1 ZINC000000057001    0.1000
10     C10    -1.4323    0.2395   -4.1329 C.3      1 ZINC000000057001   -0.1300
11     C11    -0.0792    0.0101   -4.8565 C.3      1 ZINC000000057001   -0.1100
12     C12     0.8176   -0.5687   -3.7417 C.3      1 ZINC000000057001    0.0700
13     H13     0.8370   -1.6565   -3.8089 H        1 ZINC000000057001    0.0700
14     C14     2.2158   -0.0222   -3.8732 C.2      1 ZINC000000057001    0.5000
15     O15     2.5166    1.0222   -3.3208 O.co2    1 ZINC000000057001   -0.6900
16     O16     3.0463   -0.6245   -4.5321 O.co2    1 ZINC000000057001   -0.7000
17     H17     1.0039    1.9031    0.0027 H        1 ZINC000000057001    0.0700
18     H18    -0.5459    1.8868   -0.8726 H        1 ZINC000000057001    0.0700
19     H19    -0.5289    1.8773    0.9072 H        1 ZINC000000057001    0.0700
20     H20     0.8346   -1.5958    1.1912 H        1 ZINC000000057001    0.0900
21     H21     1.7350   -0.0630    1.2804 H        1 ZINC000000057001    0.0900
22     H22     0.5676   -0.5529    3.7245 H        1 ZINC000000057001    0.0900
23     H23    -1.7373    0.4540   -1.9825 H        1 ZINC000000057001    0.0700
24     H24    -0.6995    1.7202   -2.7069 H        1 ZINC000000057001    0.0700
25     H25    -2.0144   -0.6812   -4.0917 H        1 ZINC000000057001    0.0700
26     H26    -2.0003    1.0379   -4.6104 H        1 ZINC000000057001    0.0800
27     H27    -0.1941   -0.7041   -5.6719 H        1 ZINC000000057001    0.0700
28     H28     0.3271    0.9530   -5.2227 H        1 ZINC000000057001    0.0700
@<TRIPOS>BOND
1     1     2     1
2     1     17    1
3     1     18    1
4     1     19    1
5     2     3     1
6     2     4     1
7     2     6     1
8     4     5     1
9     4     20    1
10    4     21    1
11    5     22    1
12    6     7     2
13    6     8     am
14    8     12    1
15    8     9     1
16    9     10    1
17    9     23    1
18    9     24    1
19    10    11    1
20    10    25    1
21    10    26    1
22    11    12    1
23    11    27    1
24    11    28    1
25    12    13    1
26    12    14    1
27    14    15    ar
28    14    16    ar
@<TRIPOS>SUBSTRUCTURE
1   ZINC000000057001 1     RESIDUE    1   A     ZIN   1
