@<TRIPOS>MOLECULE
ZINC000000000449
51    53    1     0     0
SMALL
USER_CHARGES
@<TRIPOS>ATOM
1      C1     -1.1730    0.1647    1.4231 C.3      1 ZINC000000000449   -0.0600
2      N2     -0.9107   -1.2701    1.5984 N.4      1 ZINC000000000449   -0.2600
3      C3     -2.1254   -1.9315    2.0934 C.3      1 ZINC000000000449   -0.0400
4      C4     -0.5284   -1.8572    0.3086 C.3      1 ZINC000000000449   -0.0100
5      C5      0.6896   -1.1191   -0.2511 C.3      1 ZINC000000000449   -0.1400
6      C6      1.8544   -1.2466    0.7349 C.3      1 ZINC000000000449   -0.1600
7      C7      1.4194   -0.6988    2.0972 C.3      1 ZINC000000000449    0.0600
8      H8      1.1895    0.3628    2.0061 H        1 ZINC000000000449    0.1100
9      O9      2.4922   -0.8819    3.0584 O.3      1 ZINC000000000449   -0.3300
10     C10     3.3852    0.1138    3.1719 C.2      1 ZINC000000000449    0.4500
11     O11     3.2741    1.1055    2.4907 O.2      1 ZINC000000000449   -0.4700
12     C12     4.5263   -0.0052    4.1491 C.3      1 ZINC000000000449    0.2500
13     O13     4.0865   -0.7107    5.3113 O.3      1 ZINC000000000449   -0.5200
14     C14     5.6626   -0.7570    3.5052 C.ar     1 ZINC000000000449   -0.0900
15     C15     5.9863   -0.5201    2.1823 C.ar     1 ZINC000000000449   -0.1200
16     C16     7.0287   -1.2096    1.5916 C.ar     1 ZINC000000000449   -0.1200
17     C17     7.7477   -2.1357    2.3240 C.ar     1 ZINC000000000449   -0.1000
18     C18     7.4246   -2.3719    3.6471 C.ar     1 ZINC000000000449   -0.1200
19     C19     6.3850   -1.6792    4.2390 C.ar     1 ZINC000000000449   -0.0800
20     C20     4.9948    1.3715    4.5444 C.ar     1 ZINC000000000449   -0.1300
21     C21     4.8481    1.8032    5.8493 C.ar     1 ZINC000000000449   -0.1000
22     C22     5.2778    3.0661    6.2120 C.ar     1 ZINC000000000449   -0.1200
23     C23     5.8547    3.8969    5.2697 C.ar     1 ZINC000000000449   -0.1000
24     C24     6.0022    3.4648    3.9650 C.ar     1 ZINC000000000449   -0.1200
25     C25     5.5764    2.2003    3.6033 C.ar     1 ZINC000000000449   -0.0800
26     C26     0.1744   -1.4525    2.5699 C.3      1 ZINC000000000449    0.0000
27     H27    -0.2714    0.6569    1.0584 H        1 ZINC000000000449    0.1200
28     H28    -1.9787    0.3013    0.7018 H        1 ZINC000000000449    0.1300
29     H29    -1.4634    0.6004    2.3791 H        1 ZINC000000000449    0.1300
30     H30    -2.9326   -1.7944    1.3738 H        1 ZINC000000000449    0.1300
31     H31    -1.9319   -2.9962    2.2238 H        1 ZINC000000000449    0.1200
32     H32    -2.4130   -1.4946    3.0497 H        1 ZINC000000000449    0.1200
33     H33    -0.2824   -2.9099    0.4478 H        1 ZINC000000000449    0.1300
34     H34    -1.3595   -1.7687   -0.3910 H        1 ZINC000000000449    0.1400
35     H35     0.9729   -1.5577   -1.2079 H        1 ZINC000000000449    0.1200
36     H36     0.4446   -0.0663   -0.3909 H        1 ZINC000000000449    0.0900
37     H37     2.1333   -2.2954    0.8359 H        1 ZINC000000000449    0.1000
38     H38     2.7069   -0.6752    0.3676 H        1 ZINC000000000449    0.1000
39     H39     3.3550   -0.2833    5.7776 H        1 ZINC000000000449    0.3900
40     H40     5.4246    0.2034    1.6101 H        1 ZINC000000000449    0.1200
41     H41     7.2811   -1.0251    0.5579 H        1 ZINC000000000449    0.1300
42     H42     8.5616   -2.6749    1.8623 H        1 ZINC000000000449    0.1300
43     H43     7.9861   -3.0956    4.2192 H        1 ZINC000000000449    0.1300
44     H44     6.1326   -1.8637    5.2728 H        1 ZINC000000000449    0.1400
45     H45     4.3974    1.1541    6.5855 H        1 ZINC000000000449    0.1300
46     H46     5.1626    3.4037    7.2313 H        1 ZINC000000000449    0.1300
47     H47     6.1898    4.8838    5.5529 H        1 ZINC000000000449    0.1300
48     H48     6.4526    4.1140    3.2288 H        1 ZINC000000000449    0.1300
49     H49     5.6916    1.8627    2.5840 H        1 ZINC000000000449    0.1200
50     H50    -0.1379   -1.0651    3.5397 H        1 ZINC000000000449    0.1400
51     H51     0.4054   -2.5138    2.6609 H        1 ZINC000000000449    0.1400
@<TRIPOS>BOND
1     1     2     1
2     1     27    1
3     1     28    1
4     1     29    1
5     2     26    1
6     2     3     1
7     2     4     1
8     3     30    1
9     3     31    1
10    3     32    1
11    4     5     1
12    4     33    1
13    4     34    1
14    5     6     1
15    5     35    1
16    5     36    1
17    6     7     1
18    6     37    1
19    6     38    1
20    7     8     1
21    7     9     1
22    7     26    1
23    9     10    1
24    10    11    2
25    10    12    1
26    12    13    1
27    12    14    1
28    12    20    1
29    13    39    1
30    14    19    ar
31    14    15    ar
32    15    16    ar
33    15    40    1
34    16    17    ar
35    16    41    1
36    17    18    ar
37    17    42    1
38    18    19    ar
39    18    43    1
40    19    44    1
41    20    25    ar
42    20    21    ar
43    21    22    ar
44    21    45    1
45    22    23    ar
46    22    46    1
47    23    24    ar
48    23    47    1
49    24    25    ar
50    24    48    1
51    25    49    1
52    26    50    1
53    26    51    1
@<TRIPOS>SUBSTRUCTURE
1   ZINC000000000449 1     RESIDUE    1   A     ZIN   1
