@<TRIPOS>MOLECULE
ZINC000001530569
55    55    1     0     0
SMALL
USER_CHARGES
@<TRIPOS>ATOM
1      C1     -0.0187    1.5258    0.0104 C.3      1 ZINC000001530569   -0.1900
2      C2      0.0021   -0.0041    0.0020 C.3      1 ZINC000001530569    0.0200
3      C3      0.7421   -0.5109    1.2415 C.3      1 ZINC000001530569   -0.1900
4      N4     -1.3761   -0.5125    0.0124 N.4      1 ZINC000001530569   -0.5000
5      H5     -1.8225   -0.2564    0.8803 H        1 ZINC000001530569    0.4300
6      H6     -1.8879   -0.1129   -0.7598 H        1 ZINC000001530569    0.4300
7      C7     -1.3591   -1.9758   -0.1163 C.3      1 ZINC000001530569   -0.0500
8      C8     -2.7945   -2.5054   -0.1054 C.3      1 ZINC000001530569    0.0900
9      H9     -3.3474   -2.0736   -0.9397 H        1 ZINC000001530569    0.1400
10     O10    -3.4268   -2.1426    1.1237 O.3      1 ZINC000001530569   -0.5400
11     C11    -2.7769   -4.0294   -0.2395 C.3      1 ZINC000001530569    0.0300
12     O12    -4.1170   -4.5137   -0.3465 O.3      1 ZINC000001530569   -0.3000
13     C13    -4.2793   -5.8570   -0.4731 C.ar     1 ZINC000001530569    0.1200
14     C14    -3.1718   -6.6923   -0.4883 C.ar     1 ZINC000001530569   -0.2100
15     C15    -3.3395   -8.0575   -0.6168 C.ar     1 ZINC000001530569   -0.0600
16     C16    -4.6098   -8.5915   -0.7305 C.ar     1 ZINC000001530569   -0.1100
17     C17    -4.7897  -10.0812   -0.8710 C.3      1 ZINC000001530569    0.1000
18     O18    -4.9171  -10.6699    0.4249 O.3      1 ZINC000001530569   -0.3700
19     C19    -5.0932  -12.0878    0.4043 C.3      1 ZINC000001530569    0.0600
20     C20    -5.2176  -12.6071    1.8381 C.3      1 ZINC000001530569    0.0600
21     O21    -6.4090  -12.0868    2.4314 O.3      1 ZINC000001530569   -0.3800
22     C22    -6.6214  -12.5132    3.7787 C.3      1 ZINC000001530569    0.0800
23     C23    -5.9596  -11.5217    4.7378 C.3      1 ZINC000001530569   -0.1700
24     C24    -8.1234  -12.5733    4.0638 C.3      1 ZINC000001530569   -0.1500
25     C25    -5.7152   -7.7612   -0.7152 C.ar     1 ZINC000001530569   -0.0500
26     C26    -5.5531   -6.3958   -0.5817 C.ar     1 ZINC000001530569   -0.1500
27     H27     1.0039    1.9031    0.0027 H        1 ZINC000001530569    0.1100
28     H28    -0.5459    1.8868   -0.8726 H        1 ZINC000001530569    0.0800
29     H29    -0.5289    1.8773    0.9072 H        1 ZINC000001530569    0.0800
30     H30     0.5123   -0.3556   -0.8948 H        1 ZINC000001530569    0.1400
31     H31     0.2319   -0.1594    2.1383 H        1 ZINC000001530569    0.0800
32     H32     0.7568   -1.6008    1.2356 H        1 ZINC000001530569    0.0800
33     H33     1.7647   -0.1336    1.2338 H        1 ZINC000001530569    0.1100
34     H34    -0.8769   -2.2525   -1.0538 H        1 ZINC000001530569    0.1500
35     H35    -0.8062   -2.4075    0.7180 H        1 ZINC000001530569    0.1400
36     H36    -2.9873   -2.4932    1.9105 H        1 ZINC000001530569    0.3900
37     H37    -2.2171   -4.3091   -1.1320 H        1 ZINC000001530569    0.0800
38     H38    -2.3018   -4.4659    0.6390 H        1 ZINC000001530569    0.0800
39     H39    -2.1793   -6.2756   -0.4002 H        1 ZINC000001530569    0.1200
40     H40    -2.4776   -8.7082   -0.6286 H        1 ZINC000001530569    0.1300
41     H41    -5.6886  -10.2853   -1.4528 H        1 ZINC000001530569    0.0600
42     H42    -3.9239  -10.5054   -1.3793 H        1 ZINC000001530569    0.0600
43     H43    -5.9983  -12.3336   -0.1510 H        1 ZINC000001530569    0.0600
44     H44    -4.2336  -12.5537   -0.0775 H        1 ZINC000001530569    0.0700
45     H45    -5.2627  -13.6961    1.8275 H        1 ZINC000001530569    0.0700
46     H46    -4.3525  -12.2849    2.4176 H        1 ZINC000001530569    0.0600
47     H47    -6.1849  -13.5019    3.9200 H        1 ZINC000001530569    0.0600
48     H48    -6.3961  -10.5329    4.5964 H        1 ZINC000001530569    0.0600
49     H49    -6.1217  -11.8469    5.7654 H        1 ZINC000001530569    0.0700
50     H50    -4.8896  -11.4788    4.5347 H        1 ZINC000001530569    0.0500
51     H51    -8.5949  -13.2797    3.3805 H        1 ZINC000001530569    0.0600
52     H52    -8.2855  -12.8985    5.0914 H        1 ZINC000001530569    0.0700
53     H53    -8.5600  -11.5846    3.9224 H        1 ZINC000001530569    0.0600
54     H54    -6.7064   -8.1808   -0.8039 H        1 ZINC000001530569    0.1400
55     H55    -6.4169   -5.7476   -0.5698 H        1 ZINC000001530569    0.1400
@<TRIPOS>BOND
1     1     2     1
2     1     27    1
3     1     28    1
4     1     29    1
5     2     3     1
6     2     4     1
7     2     30    1
8     3     31    1
9     3     32    1
10    3     33    1
11    4     5     1
12    4     6     1
13    4     7     1
14    7     8     1
15    7     34    1
16    7     35    1
17    8     9     1
18    8     10    1
19    8     11    1
20    10    36    1
21    11    12    1
22    11    37    1
23    11    38    1
24    12    13    1
25    13    26    ar
26    13    14    ar
27    14    15    ar
28    14    39    1
29    15    16    ar
30    15    40    1
31    16    17    1
32    16    25    ar
33    17    18    1
34    17    41    1
35    17    42    1
36    18    19    1
37    19    20    1
38    19    43    1
39    19    44    1
40    20    21    1
41    20    45    1
42    20    46    1
43    21    22    1
44    22    23    1
45    22    24    1
46    22    47    1
47    23    48    1
48    23    49    1
49    23    50    1
50    24    51    1
51    24    52    1
52    24    53    1
53    25    26    ar
54    25    54    1
55    26    55    1
@<TRIPOS>SUBSTRUCTURE
1   ZINC000001530569 1     RESIDUE    1   A     ZIN   1
