@<TRIPOS>MOLECULE
ZINC000100006770
19   19    0    0    0
SMALL
USER_CHARGES
NO_NAME
@<TRIPOS>ATOM
1 O1        0.0021    -0.0041     0.0020 O.2    1 <0>      -0.5400
2 C2       -0.0144     1.2125     0.0087 C.2    1 <0>       0.4800
3 O3       -1.1277     1.9696     0.0293 O.3    1 <0>      -0.3400
4 C4       -0.7337     3.3454     0.0312 C.3    1 <0>       0.0400
5 H5       -1.0978     3.8378     0.9329 H      1 <0>       0.1200
6 C6       -1.2827     4.0510    -1.2104 C.3    1 <0>       0.1200
7 H7       -1.0306     5.1106    -1.1674 H      1 <0>       0.1200
8 O8       -0.7055     3.4712    -2.3821 O.3    1 <0>      -0.5400
9 C9       -2.8035     3.8901    -1.2579 C.3    1 <0>       0.0500
10 O10      -3.3285     4.6455    -2.3514 O.3    1 <0>      -0.5600
11 C11       0.7770     3.3541     0.0091 C.2    1 <0>       0.2600
12 O12       1.5783     4.4416     0.0042 O.3    1 <0>      -0.6500
13 C13       1.1687     2.0651     0.0020 C.2    1 <0>      -0.3200
14 O14       2.4597     1.6291    -0.0167 O.3    1 <0>      -0.4600
15 H15      -0.8895     2.5275    -2.4854 H      1 <0>       0.3700
16 H16      -3.0535     2.8374    -1.3902 H      1 <0>       0.0600
17 H17      -3.2364     4.2518    -0.3253 H      1 <0>       0.0600
18 H18      -4.2896     4.5897    -2.4424 H      1 <0>       0.3700
19 H19       2.5497     0.6663    -0.0192 H      1 <0>       0.3600
@<TRIPOS>BOND
1    1    2 2
2    2   13 1
3    2    3 1
4    3    4 1
5    4    5 1
6    4    6 1
7    4   11 1
8    6    7 1
9    6    8 1
10    6    9 1
11    8   15 1
12    9   10 1
13    9   16 1
14    9   17 1
15   10   18 1
16   11   12 1
17   11   13 2
18   13   14 1
19   14   19 1
