@<TRIPOS>MOLECULE
ZINC000001543475
31    32    1     0     0
SMALL
USER_CHARGES
@<TRIPOS>ATOM
1      C1      0.5239    1.3427    0.0355 C.3      1 ZINC000001543475   -0.1600
2      C2      0.3640   -0.1764   -0.0510 C.3      1 ZINC000001543475    0.0300
3      H3     -0.6701   -0.4457    0.1643 H        1 ZINC000001543475    0.1200
4      C4      1.2881   -0.8454    0.9684 C.3      1 ZINC000001543475    0.1300
5      N5      1.0490   -2.2908    0.9696 N.pl3    1 ZINC000001543475   -0.4600
6      C6      0.2167   -2.9700    1.8088 C.2      1 ZINC000001543475    0.2700
7      N7      0.2457   -4.2411    1.5310 N.2      1 ZINC000001543475   -0.4700
8      C8      1.0959   -4.4578    0.4988 C.ar     1 ZINC000001543475   -0.0700
9      C9      1.5187   -5.5942   -0.2113 C.ar     1 ZINC000001543475    0.5100
10     N10     1.0352   -6.8504    0.1102 N.pl3    1 ZINC000001543475   -0.8300
11     N11     2.3933   -5.4345   -1.1992 N.ar     1 ZINC000001543475   -0.6000
12     C12     2.8597   -4.2397   -1.5131 C.ar     1 ZINC000001543475    0.3400
13     N13     2.4925   -3.1479   -0.8757 N.ar     1 ZINC000001543475   -0.5300
14     C14     1.6170   -3.2083    0.1223 C.ar     1 ZINC000001543475    0.3500
15     O15     0.7070   -0.6174   -1.3663 O.3      1 ZINC000001543475   -0.3500
16     C16    -0.3739   -0.5594   -2.2992 C.3      1 ZINC000001543475   -0.5400
17     P17    -1.5293   -1.9320   -1.9765 P.3      1 ZINC000001543475    2.1800
18     O18    -0.7461   -3.2887   -1.9928 O.co2    1 ZINC000001543475   -1.1500
19     O19    -2.1989   -1.7323   -0.5743 O.co2    1 ZINC000001543475   -1.1700
20     O20    -2.6360   -1.9546   -3.0852 O.co2    1 ZINC000001543475   -1.1900
21     H21     1.5716    1.6066   -0.1090 H        1 ZINC000001543475    0.0500
22     H22    -0.0801    1.8164   -0.7384 H        1 ZINC000001543475    0.0500
23     H23     0.1943    1.6876    1.0156 H        1 ZINC000001543475    0.0600
24     H24     2.3264   -0.6492    0.7013 H        1 ZINC000001543475    0.0800
25     H25     1.0860   -0.4430    1.9610 H        1 ZINC000001543475    0.0900
26     H26    -0.3784   -2.5198    2.5896 H        1 ZINC000001543475    0.2100
27     H27     0.3968   -6.9540    0.8331 H        1 ZINC000001543475    0.4100
28     H28     1.3347   -7.6273   -0.3875 H        1 ZINC000001543475    0.4000
29     H29     3.5691   -4.1550   -2.3230 H        1 ZINC000001543475    0.1800
30     H30    -0.8979    0.3901   -2.1895 H        1 ZINC000001543475    0.0200
31     H31     0.0166   -0.6439   -3.3134 H        1 ZINC000001543475    0.0600
@<TRIPOS>BOND
1     1     2     1
2     1     21    1
3     1     22    1
4     1     23    1
5     2     3     1
6     2     4     1
7     2     15    1
8     4     5     1
9     4     24    1
10    4     25    1
11    5     14    1
12    5     6     1
13    6     7     2
14    6     26    1
15    7     8     1
16    8     14    ar
17    8     9     ar
18    9     10    1
19    9     11    ar
20    10    27    1
21    10    28    1
22    11    12    ar
23    12    13    ar
24    12    29    1
25    13    14    ar
26    15    16    1
27    16    17    1
28    16    30    1
29    16    31    1
30    17    18    ar
31    17    19    ar
32    17    20    ar
@<TRIPOS>SUBSTRUCTURE
1   ZINC000001543475 1     RESIDUE    1   A     ZIN   1
