@<TRIPOS>MOLECULE
ZINC000003871978
44    46    1     0     0
SMALL
USER_CHARGES
@<TRIPOS>ATOM
1      C1      2.3003   -4.4643    3.3855 C.3      1 ZINC000003871978    0.0300
2      O2      1.5774   -3.9959    2.2453 O.3      1 ZINC000003871978   -0.1800
3      N3      1.4649   -2.5862    2.1740 N.2      1 ZINC000003871978   -0.2700
4      C4      0.8274   -2.0322    1.1797 C.2      1 ZINC000003871978    0.1800
5      C5      0.3186   -2.8692    0.0671 C.2      1 ZINC000003871978    0.5300
6      O6      0.4049   -4.0796    0.1288 O.2      1 ZINC000003871978   -0.4900
7      N7     -0.2397   -2.2876   -1.0130 N.am     1 ZINC000003871978   -0.6900
8      C8     -0.8475   -3.1147   -2.0583 C.3      1 ZINC000003871978    0.1200
9      H9     -1.1838   -4.0838   -1.6899 H        1 ZINC000003871978    0.1500
10     C10    -0.0175   -3.1997   -3.3280 C.2      1 ZINC000003871978    0.5300
11     O11     0.9932   -3.7923   -3.6417 O.2      1 ZINC000003871978   -0.4300
12     N12    -0.8487   -2.3576   -3.9658 N.am     1 ZINC000003871978   -0.5600
13     C13    -0.8380   -1.5303   -5.1021 C.2      1 ZINC000003871978    0.1000
14     C14    -0.0173   -1.8922   -6.2691 C.2      1 ZINC000003871978    0.5200
15     O15    -0.0868   -1.2294   -7.2951 O.co2    1 ZINC000003871978   -0.6600
16     O16     0.7344   -2.8559   -6.2131 O.co2    1 ZINC000003871978   -0.6500
17     C17    -1.5685   -0.4234   -5.1218 C.2      1 ZINC000003871978   -0.1900
18     C18    -1.4436    0.4237   -6.3619 C.3      1 ZINC000003871978    0.1600
19     O19    -2.2046    1.6483   -6.1902 O.3      1 ZINC000003871978   -0.3900
20     C20    -2.2824    2.4735   -7.2512 C.2      1 ZINC000003871978    0.6500
21     N21    -2.9735    3.6268   -7.1586 N.am     1 ZINC000003871978   -0.8400
22     O22    -1.7295    2.1784   -8.2922 O.2      1 ZINC000003871978   -0.5600
23     C23    -2.4983    0.0915   -4.0730 C.3      1 ZINC000003871978   -0.0100
24     S24    -2.1620   -0.6326   -2.4389 S.3      1 ZINC000003871978   -0.2400
25     C25    -1.8935   -2.3793   -2.8897 C.3      1 ZINC000003871978    0.1300
26     H26    -2.8047   -2.9337   -3.1147 H        1 ZINC000003871978    0.1500
27     C27     0.6131   -0.5746    1.1627 C.2      1 ZINC000003871978    0.0000
28     C28     1.0313    0.3068    2.1142 C.2      1 ZINC000003871978   -0.1300
29     C29     0.6139    1.5834    1.6950 C.2      1 ZINC000003871978   -0.2200
30     C30    -0.0317    1.4233    0.5213 C.2      1 ZINC000003871978    0.0100
31     O31    -0.0255    0.1201    0.2007 O.3      1 ZINC000003871978   -0.1600
32     H32     1.7974   -4.1354    4.2949 H        1 ZINC000003871978    0.0500
33     H33     2.3421   -5.5534    3.3670 H        1 ZINC000003871978    0.1100
34     H34     3.3129   -4.0615    3.3643 H        1 ZINC000003871978    0.0500
35     H35    -0.2391   -1.3213   -1.0982 H        1 ZINC000003871978    0.4200
36     H36    -0.3949    0.6682   -6.5308 H        1 ZINC000003871978    0.1000
37     H37    -1.8307   -0.1275   -7.2189 H        1 ZINC000003871978    0.1000
38     H38    -3.4149    3.8624   -6.3276 H        1 ZINC000003871978    0.4000
39     H39    -3.0296    4.2214   -7.9230 H        1 ZINC000003871978    0.4200
40     H40    -2.3933    1.1745   -4.0081 H        1 ZINC000003871978    0.1300
41     H41    -3.5224   -0.1460   -4.3609 H        1 ZINC000003871978    0.0900
42     H42     1.5771    0.0710    3.0158 H        1 ZINC000003871978    0.1600
43     H43     0.7788    2.5155    2.2150 H        1 ZINC000003871978    0.1600
44     H44    -0.4767    2.2135   -0.0651 H        1 ZINC000003871978    0.2100
@<TRIPOS>BOND
1     1     2     1
2     1     32    1
3     1     33    1
4     1     34    1
5     2     3     1
6     3     4     2
7     4     5     1
8     4     27    1
9     5     6     2
10    5     7     am
11    7     8     1
12    7     35    1
13    8     9     1
14    8     25    1
15    8     10    1
16    10    11    2
17    10    12    am
18    12    25    1
19    12    13    1
20    13    14    1
21    13    17    2
22    14    15    ar
23    14    16    ar
24    17    18    1
25    17    23    1
26    18    19    1
27    18    36    1
28    18    37    1
29    19    20    1
30    20    21    am
31    20    22    2
32    21    38    1
33    21    39    1
34    23    24    1
35    23    40    1
36    23    41    1
37    24    25    1
38    25    26    1
39    27    31    1
40    27    28    2
41    28    29    1
42    28    42    1
43    29    30    2
44    29    43    1
45    30    31    1
46    30    44    1
@<TRIPOS>SUBSTRUCTURE
1   ZINC000003871978 1     RESIDUE    1   A     ZIN   1
