@<TRIPOS>MOLECULE
ZINC000004097467
60   63    0    0    0
SMALL
USER_CHARGES
NO_NAME
@<TRIPOS>ATOM
1 C1       -0.7342     1.6172     0.7313 C.3    1 <0>      -0.1500
2 C2       -0.4865     0.1338     0.6344 C.2    1 <0>       0.4500
3 O3        0.6216    -0.3075     0.8277 O.2    1 <0>      -0.5000
4 O4       -1.4968    -0.6971     0.3335 O.3    1 <0>      -0.3300
5 C5       -1.1644    -2.0979     0.1452 C.3    1 <0>       0.0900
6 C6       -0.6289    -2.6836     1.4263 C.2    1 <0>       0.3600
7 C7       -1.1458    -2.1916     2.7537 C.3    1 <0>      -0.2000
8 O8        0.2145    -3.5471     1.3893 O.2    1 <0>      -0.4300
9 C9       -0.1266    -2.2550    -0.9942 C.3    1 <0>      -0.1300
10 C10      -0.8338    -3.0522    -2.1241 C.3    1 <0>      -0.1200
11 C11      -2.3179    -2.7698    -1.8661 C.3    1 <0>      -0.0800
12 H12      -2.5756    -1.7624    -2.1931 H      1 <0>       0.0900
13 C13      -3.2940    -3.7777    -2.4418 C.3    1 <0>      -0.0600
14 H14      -3.0752    -4.7682    -2.0430 H      1 <0>       0.1000
15 C15      -3.2088    -3.8077    -3.9422 C.2    1 <0>      -0.1000
16 C16      -4.2736    -4.0870    -4.6916 C.2    1 <0>      -0.1200
17 C17      -4.1361    -4.1119    -6.1921 C.3    1 <0>      -0.1200
18 C18      -5.5731    -4.3702    -4.0855 C.2    1 <0>       0.0400
19 C19      -6.6355    -4.6616    -4.8733 C.2    1 <0>      -0.2500
20 C20      -7.9057    -4.9206    -4.3347 C.2    1 <0>       0.3900
21 O21      -8.8290    -5.1913    -5.0761 O.2    1 <0>      -0.4700
22 C22      -8.1359    -4.8659    -2.8466 C.3    1 <0>      -0.1700
23 C23      -7.1362    -3.8875    -2.2211 C.3    1 <0>      -0.1100
24 C24      -5.7183    -4.3332    -2.5844 C.3    1 <0>      -0.0300
25 C25      -5.4560    -5.7266    -2.0095 C.3    1 <0>      -0.1500
26 C26      -4.7034    -3.3453    -2.0061 C.3    1 <0>      -0.0700
27 H27      -4.9024    -2.3540    -2.4131 H      1 <0>       0.0800
28 C28      -4.8257    -3.2915    -0.4877 C.3    1 <0>      -0.1200
29 C29      -3.7477    -2.3816     0.1264 C.3    1 <0>      -0.1000
30 C30      -2.3921    -2.8747    -0.3184 C.3    1 <0>      -0.0400
31 C31      -2.2347    -4.3521     0.0472 C.3    1 <0>      -0.1600
32 H32       0.1967     2.1254     0.9825 H      1 <0>       0.1000
33 H33      -1.1034     1.9871    -0.2253 H      1 <0>       0.1000
34 H34      -1.4752     1.8119     1.5066 H      1 <0>       0.1000
35 H35      -2.0576    -2.7305     3.0109 H      1 <0>       0.1000
36 H36      -0.3929    -2.3633     3.5230 H      1 <0>       0.0900
37 H37      -1.3606    -1.1250     2.6871 H      1 <0>       0.0800
38 H38       0.1769    -1.2746    -1.3616 H      1 <0>       0.0800
39 H39       0.7426    -2.8060    -0.6352 H      1 <0>       0.0900
40 H40      -0.5350    -2.6798    -3.1040 H      1 <0>       0.0800
41 H41      -0.6227    -4.1178    -2.0345 H      1 <0>       0.0800
42 H42      -2.2645    -3.5980    -4.4225 H      1 <0>       0.1200
43 H43      -3.1069    -3.8802    -6.4665 H      1 <0>       0.0700
44 H44      -4.3971    -5.1026    -6.5644 H      1 <0>       0.0700
45 H45      -4.8047    -3.3711    -6.6306 H      1 <0>       0.0700
46 H46      -6.5019    -4.6953    -5.9445 H      1 <0>       0.1300
47 H47      -9.1522    -4.5259    -2.6473 H      1 <0>       0.1000
48 H48      -7.9916    -5.8579    -2.4187 H      1 <0>       0.1000
49 H49      -7.3146    -2.8847    -2.6092 H      1 <0>       0.0700
50 H50      -7.2532    -3.8884    -1.1374 H      1 <0>       0.0800
51 H51      -6.1755    -6.4323    -2.4248 H      1 <0>       0.0600
52 H52      -4.4457    -6.0425    -2.2693 H      1 <0>       0.0600
53 H53      -5.5601    -5.6976    -0.9249 H      1 <0>       0.0700
54 H54      -5.8107    -2.9076    -0.2222 H      1 <0>       0.0700
55 H55      -4.7154    -4.2982    -0.0846 H      1 <0>       0.0700
56 H56      -3.8745    -1.3610    -0.2347 H      1 <0>       0.0800
57 H57      -3.8204    -2.4027     1.2137 H      1 <0>       0.0700
58 H58      -3.0746    -4.9176    -0.3561 H      1 <0>       0.0800
59 H59      -1.3043    -4.7334    -0.3737 H      1 <0>       0.0700
60 H60      -2.2129    -4.4576     1.1318 H      1 <0>       0.0600
@<TRIPOS>BOND
1    1    2 1
2    1   32 1
3    1   33 1
4    1   34 1
5    2    3 2
6    2    4 1
7    4    5 1
8    5   30 1
9    5    6 1
10    5    9 1
11    6    7 1
12    6    8 2
13    7   35 1
14    7   36 1
15    7   37 1
16    9   10 1
17    9   38 1
18    9   39 1
19   10   11 1
20   10   40 1
21   10   41 1
22   11   12 1
23   11   30 1
24   11   13 1
25   13   14 1
26   13   26 1
27   13   15 1
28   15   16 2
29   15   42 1
30   16   17 1
31   16   18 1
32   17   43 1
33   17   44 1
34   17   45 1
35   18   24 1
36   18   19 2
37   19   20 1
38   19   46 1
39   20   21 2
40   20   22 1
41   22   23 1
42   22   47 1
43   22   48 1
44   23   24 1
45   23   49 1
46   23   50 1
47   24   25 1
48   24   26 1
49   25   51 1
50   25   52 1
51   25   53 1
52   26   27 1
53   26   28 1
54   28   29 1
55   28   54 1
56   28   55 1
57   29   30 1
58   29   56 1
59   29   57 1
60   30   31 1
61   31   58 1
62   31   59 1
63   31   60 1
