@<TRIPOS>MOLECULE
ZINC000004212809
63    67    1     0     0
SMALL
USER_CHARGES
@<TRIPOS>ATOM
1      C1     -0.1084    1.5828    0.0844 C.3      1 ZINC000004212809   -0.1500
2      C2     -0.0315    0.0779    0.0633 C.2      1 ZINC000004212809    0.4600
3      O3     -0.0029   -0.5401    1.1011 O.2      1 ZINC000004212809   -0.5100
4      O4      0.0054   -0.5758   -1.1085 O.3      1 ZINC000004212809   -0.3400
5      C5      0.0792   -2.0249   -1.0528 C.3      1 ZINC000004212809    0.0200
6      C6      0.1117   -2.5804   -2.4533 C.2      1 ZINC000004212809    0.3800
7      O7      0.0763   -1.8323   -3.4006 O.2      1 ZINC000004212809   -0.4000
8      C8      0.1884   -4.0695   -2.6716 C.3      1 ZINC000004212809    0.0200
9      N9      0.7854   -4.8001   -1.5391 N.2      1 ZINC000004212809   -0.5300
10     C10    -0.1383   -5.4564   -0.9331 C.2      1 ZINC000004212809    0.3200
11     C11     0.1287   -6.3236    0.2701 C.3      1 ZINC000004212809   -0.0900
12     O12    -1.3636   -5.3022   -1.4649 O.3      1 ZINC000004212809   -0.3400
13     C13    -1.2097   -4.7648   -2.7926 C.3      1 ZINC000004212809    0.0700
14     H14    -2.0095   -4.0799   -3.0743 H        1 ZINC000004212809    0.1300
15     C15    -1.0430   -5.9412   -3.7837 C.3      1 ZINC000004212809   -0.1300
16     C16     0.4437   -5.9834   -4.1204 C.3      1 ZINC000004212809   -0.0900
17     H17     0.9705   -6.5936   -3.3867 H        1 ZINC000004212809    0.0800
18     C18     0.8053   -6.4396   -5.5206 C.3      1 ZINC000004212809   -0.0800
19     H19     0.3518   -5.7719   -6.2532 H        1 ZINC000004212809    0.1000
20     C20     0.3083   -7.8687   -5.7480 C.3      1 ZINC000004212809   -0.1100
21     C21     0.6383   -8.3085   -7.1778 C.3      1 ZINC000004212809   -0.0900
22     C22     2.1291   -8.1301   -7.3953 C.2      1 ZINC000004212809   -0.0300
23     C23     2.8367   -9.1474   -7.8663 C.2      1 ZINC000004212809   -0.2300
24     C24     4.2877   -9.0176   -8.0714 C.2      1 ZINC000004212809    0.4100
25     O25     4.9345   -9.9363   -8.5387 O.2      1 ZINC000004212809   -0.4600
26     C26     4.9398   -7.7507   -7.6991 C.2      1 ZINC000004212809   -0.2200
27     C27     4.2125   -6.7461   -7.2364 C.2      1 ZINC000004212809   -0.0600
28     C28     2.7332   -6.7971   -7.0649 C.3      1 ZINC000004212809   -0.0100
29     C29     2.1165   -5.7586   -8.0041 C.3      1 ZINC000004212809   -0.1300
30     C30     2.3364   -6.3827   -5.6456 C.3      1 ZINC000004212809   -0.0500
31     H31     2.7682   -7.0854   -4.9329 H        1 ZINC000004212809    0.0800
32     C32     2.8711   -4.9834   -5.3579 C.3      1 ZINC000004212809    0.1100
33     H33     3.9607   -5.0103   -5.3672 H        1 ZINC000004212809    0.0600
34     O34     2.4183   -4.0923   -6.3792 O.3      1 ZINC000004212809   -0.5500
35     C35     2.3940   -4.4630   -3.9929 C.3      1 ZINC000004212809   -0.1300
36     C36     0.8772   -4.4590   -3.9822 C.3      1 ZINC000004212809   -0.0300
37     C37     0.3400   -3.6446   -5.1608 C.3      1 ZINC000004212809   -0.1400
38     H38     0.8994    1.9981    0.0925 H        1 ZINC000004212809    0.1100
39     H39    -0.6381    1.9320   -0.8019 H        1 ZINC000004212809    0.1000
40     H40    -0.6421    1.9069    0.9778 H        1 ZINC000004212809    0.1100
41     H41     0.9840   -2.3225   -0.5228 H        1 ZINC000004212809    0.1100
42     H42    -0.7936   -2.4133   -0.5280 H        1 ZINC000004212809    0.1000
43     H43     0.0261   -5.7280    1.1772 H        1 ZINC000004212809    0.1000
44     H44    -0.5874   -7.1451    0.2919 H        1 ZINC000004212809    0.0900
45     H45     1.1404   -6.7249    0.2115 H        1 ZINC000004212809    0.1000
46     H46    -1.3500   -6.8759   -3.3145 H        1 ZINC000004212809    0.0900
47     H47    -1.6287   -5.7608   -4.6850 H        1 ZINC000004212809    0.0900
48     H48     0.7961   -8.5392   -5.0405 H        1 ZINC000004212809    0.0700
49     H49    -0.7706   -7.9058   -5.5970 H        1 ZINC000004212809    0.0700
50     H50     0.3698   -9.3564   -7.3115 H        1 ZINC000004212809    0.0800
51     H51     0.0866   -7.6932   -7.8885 H        1 ZINC000004212809    0.0900
52     H52     2.3440  -10.0794   -8.1009 H        1 ZINC000004212809    0.1400
53     H53     6.0092   -7.6416   -7.8031 H        1 ZINC000004212809    0.1400
54     H54     4.7227   -5.8333   -6.9665 H        1 ZINC000004212809    0.1300
55     H55     2.0434   -6.1752   -9.0087 H        1 ZINC000004212809    0.0400
56     H56     1.1213   -5.4922   -7.6480 H        1 ZINC000004212809    0.0800
57     H57     2.7453   -4.8685   -8.0248 H        1 ZINC000004212809    0.1000
58     H58     2.7179   -3.1799   -6.2661 H        1 ZINC000004212809    0.3700
59     H59     2.7628   -5.1119   -3.1986 H        1 ZINC000004212809    0.0800
60     H60     2.7514   -3.4450   -3.8381 H        1 ZINC000004212809    0.0700
61     H61     0.5295   -4.1818   -6.0901 H        1 ZINC000004212809    0.1000
62     H62    -0.7329   -3.4950   -5.0399 H        1 ZINC000004212809    0.0400
63     H63     0.8406   -2.6769   -5.1919 H        1 ZINC000004212809    0.0700
@<TRIPOS>BOND
1     1     2     1
2     1     38    1
3     1     39    1
4     1     40    1
5     2     3     2
6     2     4     1
7     4     5     1
8     5     6     1
9     5     41    1
10    5     42    1
11    6     7     2
12    6     8     1
13    8     13    1
14    8     36    1
15    8     9     1
16    9     10    2
17    10    11    1
18    10    12    1
19    11    43    1
20    11    44    1
21    11    45    1
22    12    13    1
23    13    14    1
24    13    15    1
25    15    16    1
26    15    46    1
27    15    47    1
28    16    17    1
29    16    36    1
30    16    18    1
31    18    19    1
32    18    30    1
33    18    20    1
34    20    21    1
35    20    48    1
36    20    49    1
37    21    22    1
38    21    50    1
39    21    51    1
40    22    28    1
41    22    23    2
42    23    24    1
43    23    52    1
44    24    25    2
45    24    26    1
46    26    27    2
47    26    53    1
48    27    28    1
49    27    54    1
50    28    29    1
51    28    30    1
52    29    55    1
53    29    56    1
54    29    57    1
55    30    31    1
56    30    32    1
57    32    33    1
58    32    34    1
59    32    35    1
60    34    58    1
61    35    36    1
62    35    59    1
63    35    60    1
64    36    37    1
65    37    61    1
66    37    62    1
67    37    63    1
@<TRIPOS>SUBSTRUCTURE
1   ZINC000004212809 1     RESIDUE    1   A     ZIN   1
