@<TRIPOS>MOLECULE
ZINC000003927200
57   63    0    0    0
SMALL
USER_CHARGES
NO_NAME
@<TRIPOS>ATOM
1 C1       -0.0186     1.5236     0.0104 C.3    1 <0>      -0.1500
2 C2        0.0021    -0.0041     0.0020 C.3    1 <0>      -0.0500
3 C3       -1.4221    -0.5115     0.1921 C.3    1 <0>      -0.1100
4 C4       -1.9427     0.0271     1.5357 C.3    1 <0>      -0.1100
5 C5       -1.0385    -0.3573     2.6970 C.3    1 <0>      -0.0700
6 H6       -1.0790    -1.4566     2.7889 H      1 <0>       0.0700
7 C7        0.4298     0.0166     2.4646 C.3    1 <0>      -0.0400
8 H8        0.5713     1.0863     2.4336 H      1 <0>       0.0900
9 C9        1.2889    -0.5580     3.5960 C.3    1 <0>      -0.1400
10 H10       2.0315    -1.2922     3.2865 H      1 <0>       0.1100
11 C11       1.6671     0.4057     4.7275 C.3    1 <0>      -0.1600
12 C12       0.6766    -0.7182     4.9841 C.3    1 <0>      -0.1300
13 H13       1.0350    -1.5636     5.5819 H      1 <0>       0.1200
14 C14      -0.7943    -0.4156     5.1449 C.2    1 <0>       0.0100
15 C15      -1.3759    -0.7461     6.2991 C.2    1 <0>      -0.2400
16 C16      -2.8020    -0.5093     6.5297 C.2    1 <0>       0.3900
17 O17      -3.3634    -0.9779     7.5021 O.2    1 <0>      -0.4600
18 C18      -3.5607     0.3331     5.5272 C.3    1 <0>      -0.1700
19 C19      -3.0529    -0.0070     4.1277 C.3    1 <0>      -0.1100
20 C20      -1.5504     0.2207     4.0152 C.3    1 <0>      -0.0300
21 C21      -1.3129     1.7302     4.0458 C.3    1 <0>      -0.1500
22 C22       0.8326    -0.6142     1.1494 C.3    1 <0>      -0.0400
23 H23       0.5542    -1.6904     1.2239 H      1 <0>       0.0800
24 C24       2.2801    -0.5663     0.7161 C.3    1 <0>      -0.1300
25 H25       2.9653    -1.2420     1.2537 H      1 <0>       0.1100
26 C26       2.8996     0.5437    -0.1164 C.3    1 <0>      -0.1300
27 C27       2.2201    -0.6189    -0.8359 C.3    1 <0>      -0.2000
28 H28       2.8316    -1.3308    -1.4006 H      1 <0>       0.1200
29 C29       0.7368    -0.4999    -1.2336 C.3    1 <0>       0.1500
30 C30       0.2122    -1.8688    -1.7011 C.3    1 <0>      -0.1500
31 C31       0.4988    -1.7863    -3.2215 C.3    1 <0>      -0.1900
32 C32       0.4606    -0.2995    -3.5097 C.2    1 <0>       0.4800
33 O33       0.3417     0.1906    -4.6070 O.2    1 <0>      -0.4600
34 O34       0.5735     0.3913    -2.3635 O.3    1 <0>      -0.3200
35 H35       0.9744     1.9018    -0.2325 H      1 <0>       0.0700
36 H36      -0.7347     1.8813    -0.7294 H      1 <0>       0.0600
37 H37      -0.3103     1.8776     0.9992 H      1 <0>       0.0700
38 H38      -2.0492    -0.1500    -0.6214 H      1 <0>       0.0700
39 H39      -1.4230    -1.6008     0.2113 H      1 <0>       0.0700
40 H40      -2.0784     1.1005     1.4917 H      1 <0>       0.0700
41 H41      -2.9318    -0.4211     1.7111 H      1 <0>       0.0700
42 H42       2.6670     0.3003     5.1598 H      1 <0>       0.1000
43 H43       1.2944     1.4255     4.6804 H      1 <0>       0.1000
44 H44      -0.7781    -1.2023     7.0776 H      1 <0>       0.1300
45 H45      -4.6283     0.1008     5.5925 H      1 <0>       0.0900
46 H46      -3.4178     1.3908     5.7423 H      1 <0>       0.1000
47 H47      -3.2672    -1.0513     3.9082 H      1 <0>       0.0700
48 H48      -3.5592     0.6266     3.3996 H      1 <0>       0.0800
49 H49      -1.6915     2.1387     4.9828 H      1 <0>       0.0600
50 H50      -0.2445     1.9316     3.9671 H      1 <0>       0.0700
51 H51      -1.8331     2.1970     3.2094 H      1 <0>       0.0700
52 H52       2.4514     1.5255    -0.1385 H      1 <0>       0.1100
53 H53       3.9996     0.5693    -0.1611 H      1 <0>       0.1000
54 H54       0.7770    -2.6769    -1.2403 H      1 <0>       0.1000
55 H55      -0.8535    -1.9704    -1.5165 H      1 <0>       0.1000
56 H56       1.4832    -2.1917    -3.4453 H      1 <0>       0.1100
57 H57      -0.2738    -2.3053    -3.7841 H      1 <0>       0.1100
@<TRIPOS>BOND
1    1    2 1
2    1   35 1
3    1   36 1
4    1   37 1
5    2   22 1
6    2   29 1
7    2    3 1
8    3    4 1
9    3   38 1
10    3   39 1
11    4    5 1
12    4   40 1
13    4   41 1
14    5    6 1
15    5   20 1
16    5    7 1
17    7    8 1
18    7    9 1
19    7   22 1
20    9   10 1
21    9   12 1
22    9   11 1
23   11   12 1
24   11   42 1
25   11   43 1
26   12   13 1
27   12   14 1
28   14   20 1
29   14   15 2
30   15   16 1
31   15   44 1
32   16   17 2
33   16   18 1
34   18   19 1
35   18   45 1
36   18   46 1
37   19   20 1
38   19   47 1
39   19   48 1
40   20   21 1
41   21   49 1
42   21   50 1
43   21   51 1
44   22   23 1
45   22   24 1
46   24   25 1
47   24   27 1
48   24   26 1
49   26   27 1
50   26   52 1
51   26   53 1
52   27   28 1
53   27   29 1
54   29   34 1
55   29   30 1
56   30   31 1
57   30   54 1
58   30   55 1
59   31   32 1
60   31   56 1
61   31   57 1
62   32   33 2
63   32   34 1
