@<TRIPOS>MOLECULE
ZINC000003831051
29   28    0    0    0
SMALL
USER_CHARGES
NO_NAME
@<TRIPOS>ATOM
1 C1       -0.7979     1.5006    -0.6081 C.3    1 <0>      -0.1500
2 C2       -0.7077    -0.0030    -0.5609 C.2    1 <0>       0.4600
3 O3        0.3407    -0.5531    -0.8021 O.2    1 <0>      -0.4900
4 O4       -1.7920    -0.7310    -0.2510 O.3    1 <0>      -0.3600
5 C5       -1.6316    -2.1739    -0.2245 C.3    1 <0>       0.0600
6 H6       -0.6080    -2.4206     0.0573 H      1 <0>       0.1100
7 C7       -1.9307    -2.7458    -1.6117 C.3    1 <0>      -0.1700
8 C8       -2.6005    -2.7760     0.7952 C.3    1 <0>       0.0000
9 N9       -2.2148    -2.3508     2.1474 N.4    1 <0>      -0.2700
10 C10      -2.3689    -0.8947     2.2654 C.3    1 <0>      -0.0500
11 C11      -3.0762    -3.0160     3.1341 C.3    1 <0>      -0.0500
12 C12      -0.8138    -2.7166     2.3948 C.3    1 <0>      -0.0600
13 H13       0.1744     1.9147    -0.8749 H      1 <0>       0.1100
14 H14      -1.5360     1.7971    -1.3534 H      1 <0>       0.1100
15 H15      -1.0975     1.8775     0.3698 H      1 <0>       0.1000
16 H16      -1.2405    -2.3169    -2.3381 H      1 <0>       0.0800
17 H17      -1.8104    -3.8290    -1.5918 H      1 <0>       0.0900
18 H18      -2.9544    -2.4991    -1.8934 H      1 <0>       0.0800
19 H19      -3.6127    -2.4329     0.5812 H      1 <0>       0.1400
20 H20      -2.5646    -3.8636     0.7322 H      1 <0>       0.1500
21 H21      -3.3617    -0.6053     1.9207 H      1 <0>       0.1300
22 H22      -2.2458    -0.5996     3.3075 H      1 <0>       0.1200
23 H23      -1.6137    -0.3988     1.6557 H      1 <0>       0.1200
24 H24      -2.9619    -4.0964     3.0465 H      1 <0>       0.1200
25 H25      -2.7901    -2.7005     4.1375 H      1 <0>       0.1200
26 H26      -4.1158    -2.7446     2.9505 H      1 <0>       0.1200
27 H27      -0.1747    -2.2231     1.6627 H      1 <0>       0.1200
28 H28      -0.5277    -2.4012     3.3982 H      1 <0>       0.1300
29 H29      -0.6995    -3.7971     2.3072 H      1 <0>       0.1300
@<TRIPOS>BOND
1    1    2 1
2    1   13 1
3    1   14 1
4    1   15 1
5    2    3 2
6    2    4 1
7    4    5 1
8    5    6 1
9    5    7 1
10    5    8 1
11    7   16 1
12    7   17 1
13    7   18 1
14    8    9 1
15    8   19 1
16    8   20 1
17    9   10 1
18    9   11 1
19    9   12 1
20   10   21 1
21   10   22 1
22   10   23 1
23   11   24 1
24   11   25 1
25   11   26 1
26   12   27 1
27   12   28 1
28   12   29 1
