@<TRIPOS>MOLECULE
ZINC000253530025
51    54    1     0     0
SMALL
USER_CHARGES
@<TRIPOS>ATOM
1      C1     -0.0440   -1.2344   -1.5088 C.1      1 ZINC000253530025   -0.1800
2      C2     -0.1239   -0.0876   -1.2706 C.1      1 ZINC000253530025   -0.2000
3      C3     -0.2238    1.3474   -0.9725 C.3      1 ZINC000253530025    0.2400
4      O4     -1.3681    1.6306   -0.1764 O.3      1 ZINC000253530025   -0.5400
5      C5     -0.2433    2.1744   -2.2853 C.3      1 ZINC000253530025   -0.1400
6      C6      0.7947    3.3193   -2.1016 C.3      1 ZINC000253530025   -0.1100
7      C7      1.0034    3.3303   -0.5823 C.3      1 ZINC000253530025   -0.0800
8      H8      0.0606    3.7399   -0.1389 H        1 ZINC000253530025    0.0800
9      C9      2.1437    4.1185   -0.0156 C.3      1 ZINC000253530025   -0.0600
10     H10     1.9401    5.2004   -0.1731 H        1 ZINC000253530025    0.0700
11     C11     3.4991    3.8057   -0.6342 C.3      1 ZINC000253530025   -0.1200
12     C12     4.5264    4.8132   -0.0903 C.3      1 ZINC000253530025   -0.1000
13     C13     4.5565    4.6413    1.4196 C.2      1 ZINC000253530025   -0.0200
14     C14     5.7398    4.4344    1.9970 C.2      1 ZINC000253530025   -0.2500
15     C15     5.8167    4.2766    3.4543 C.2      1 ZINC000253530025    0.3900
16     O16     6.7336    3.6923    3.9893 O.2      1 ZINC000253530025   -0.4600
17     C17     4.6789    4.8871    4.2508 C.3      1 ZINC000253530025   -0.1700
18     C18     3.3775    4.3596    3.6431 C.3      1 ZINC000253530025   -0.1100
19     C19     3.2639    4.7106    2.1704 C.3      1 ZINC000253530025   -0.0600
20     H20     2.9330    5.7609    2.1254 H        1 ZINC000253530025    0.0900
21     C21     2.1777    3.8784    1.5036 C.3      1 ZINC000253530025   -0.0700
22     H22     1.2086    4.2193    1.9031 H        1 ZINC000253530025    0.0700
23     C23     2.2954    2.3944    1.8166 C.3      1 ZINC000253530025   -0.1200
24     C24     1.1005    1.6189    1.2334 C.3      1 ZINC000253530025   -0.1000
25     C25     1.0571    1.8259   -0.2611 C.3      1 ZINC000253530025   -0.0300
26     C26     2.2204    1.0970   -0.9350 C.3      1 ZINC000253530025   -0.1300
27     C27     2.4254   -0.2639   -0.2666 C.3      1 ZINC000253530025   -0.1700
28     H28     0.0275   -2.2601   -1.7218 H        1 ZINC000253530025    0.2200
29     H29    -2.2055    1.3731   -0.5857 H        1 ZINC000253530025    0.3800
30     H30     0.0359    1.5485   -3.1271 H        1 ZINC000253530025    0.0700
31     H31    -1.2361    2.5978   -2.4440 H        1 ZINC000253530025    0.0800
32     H32     1.7153    3.1071   -2.6371 H        1 ZINC000253530025    0.0700
33     H33     0.3724    4.2684   -2.4354 H        1 ZINC000253530025    0.0700
34     H34     3.8492    2.8183   -0.3345 H        1 ZINC000253530025    0.0800
35     H35     3.4556    3.8853   -1.7157 H        1 ZINC000253530025    0.0700
36     H36     5.5053    4.5903   -0.5069 H        1 ZINC000253530025    0.0800
37     H37     4.2191    5.8218   -0.3450 H        1 ZINC000253530025    0.0800
38     H38     6.6353    4.3811    1.3984 H        1 ZINC000253530025    0.1300
39     H39     4.7502    4.5826    5.2933 H        1 ZINC000253530025    0.0900
40     H40     4.7110    5.9734    4.1725 H        1 ZINC000253530025    0.1000
41     H41     3.3557    3.2795    3.7677 H        1 ZINC000253530025    0.0800
42     H42     2.5358    4.7994    4.1790 H        1 ZINC000253530025    0.0800
43     H43     3.2271    2.0039    1.4189 H        1 ZINC000253530025    0.0600
44     H44     2.2883    2.2528    2.9003 H        1 ZINC000253530025    0.0700
45     H45     1.2154    0.5565    1.4605 H        1 ZINC000253530025    0.0700
46     H46     0.1765    1.9822    1.6911 H        1 ZINC000253530025    0.0700
47     H47     1.9955    0.9526   -1.9917 H        1 ZINC000253530025    0.0600
48     H48     3.1286    1.6914   -0.8348 H        1 ZINC000253530025    0.0800
49     H49     3.0673   -0.8834   -0.8930 H        1 ZINC000253530025    0.0500
50     H50     2.8942   -0.1235    0.7073 H        1 ZINC000253530025    0.0500
51     H51     1.4605   -0.7545   -0.1380 H        1 ZINC000253530025    0.0700
@<TRIPOS>BOND
1     1     2     3
2     1     28    1
3     2     3     1
4     3     25    1
5     3     4     1
6     3     5     1
7     4     29    1
8     5     6     1
9     5     30    1
10    5     31    1
11    6     7     1
12    6     32    1
13    6     33    1
14    7     8     1
15    7     25    1
16    7     9     1
17    9     10    1
18    9     21    1
19    9     11    1
20    11    12    1
21    11    34    1
22    11    35    1
23    12    13    1
24    12    36    1
25    12    37    1
26    13    19    1
27    13    14    2
28    14    15    1
29    14    38    1
30    15    16    2
31    15    17    1
32    17    18    1
33    17    39    1
34    17    40    1
35    18    19    1
36    18    41    1
37    18    42    1
38    19    20    1
39    19    21    1
40    21    22    1
41    21    23    1
42    23    24    1
43    23    43    1
44    23    44    1
45    24    25    1
46    24    45    1
47    24    46    1
48    25    26    1
49    26    27    1
50    26    47    1
51    26    48    1
52    27    49    1
53    27    50    1
54    27    51    1
@<TRIPOS>SUBSTRUCTURE
1   ZINC000253530025 1     RESIDUE    1   A     ZIN   1
