@<TRIPOS>MOLECULE
ZINC000001530975
52    54    1     0     0
SMALL
USER_CHARGES
@<TRIPOS>ATOM
1      C1     -0.0178    1.4648    0.0101 C.3      1 ZINC000001530975   -0.0500
2      N2      0.0021   -0.0041    0.0020 N.4      1 ZINC000001530975   -0.3800
3      H3      0.4901   -0.3383    0.8195 H        1 ZINC000001530975    0.4200
4      C4     -1.3761   -0.5125    0.0124 C.3      1 ZINC000001530975    0.0400
5      C5     -2.0429   -0.1300    1.3086 C.ar     1 ZINC000001530975   -0.1700
6      C6     -1.9636   -0.9725    2.4017 C.ar     1 ZINC000001530975   -0.0900
7      C7     -2.5752   -0.6217    3.5906 C.ar     1 ZINC000001530975   -0.1100
8      C8     -3.2657    0.5720    3.6867 C.ar     1 ZINC000001530975   -0.0300
9      C9     -3.9329    0.9543    4.9828 C.3      1 ZINC000001530975   -0.0400
10     C10    -2.8812    1.0455    6.0903 C.3      1 ZINC000001530975   -0.1400
11     C11    -4.6220    2.3107    4.8209 C.3      1 ZINC000001530975   -0.1500
12     C12    -4.9728   -0.1051    5.3530 C.3      1 ZINC000001530975   -0.1400
13     C13    -3.3439    1.4152    2.5941 C.ar     1 ZINC000001530975   -0.1200
14     C14    -2.7290    1.0661    1.4063 C.ar     1 ZINC000001530975   -0.0900
15     C15     0.6897   -0.4778   -1.2066 C.3      1 ZINC000001530975    0.0400
16     C16     2.1367   -0.0597   -1.1578 C.ar     1 ZINC000001530975   -0.1600
17     C17     3.0591   -0.7959   -0.3954 C.ar     1 ZINC000001530975   -0.0300
18     C18     2.6629   -1.9300    0.3341 C.ar     1 ZINC000001530975   -0.1500
19     C19     3.5844   -2.6187    1.0611 C.ar     1 ZINC000001530975   -0.0800
20     C20     4.9185   -2.2165    1.0947 C.ar     1 ZINC000001530975   -0.1200
21     C21     5.3385   -1.1234    0.4014 C.ar     1 ZINC000001530975   -0.0900
22     C22     4.4160   -0.3872   -0.3617 C.ar     1 ZINC000001530975   -0.0600
23     C23     4.8122    0.7464   -1.0911 C.ar     1 ZINC000001530975   -0.0600
24     C24     3.8907    1.4346   -1.8194 C.ar     1 ZINC000001530975   -0.1300
25     C25     2.5580    1.0299   -1.8566 C.ar     1 ZINC000001530975   -0.0600
26     H26     1.0047    1.8421    0.0024 H        1 ZINC000001530975    0.1200
27     H27    -0.5450    1.8259   -0.8730 H        1 ZINC000001530975    0.1200
28     H28    -0.5280    1.8163    0.9069 H        1 ZINC000001530975    0.1200
29     H29    -1.9290   -0.0808   -0.8218 H        1 ZINC000001530975    0.1400
30     H30    -1.3635   -1.5983   -0.0831 H        1 ZINC000001530975    0.1400
31     H31    -1.4241   -1.9051    2.3266 H        1 ZINC000001530975    0.1300
32     H32    -2.5138   -1.2803    4.4444 H        1 ZINC000001530975    0.1300
33     H33    -2.1404    1.8003    5.8266 H        1 ZINC000001530975    0.0600
34     H34    -3.3638    1.3220    7.0277 H        1 ZINC000001530975    0.0700
35     H35    -2.3903    0.0792    6.2056 H        1 ZINC000001530975    0.0600
36     H36    -5.3713    2.2458    4.0319 H        1 ZINC000001530975    0.0600
37     H37    -5.1046    2.5872    5.7584 H        1 ZINC000001530975    0.0700
38     H38    -3.8812    3.0655    4.5572 H        1 ZINC000001530975    0.0600
39     H39    -4.4819   -1.0714    5.4683 H        1 ZINC000001530975    0.0600
40     H40    -5.4554    0.1714    6.2904 H        1 ZINC000001530975    0.0700
41     H41    -5.7221   -0.1701    4.5640 H        1 ZINC000001530975    0.0600
42     H42    -3.8830    2.3480    2.6693 H        1 ZINC000001530975    0.1400
43     H43    -2.7900    1.7248    0.5526 H        1 ZINC000001530975    0.1300
44     H44     0.6270   -1.5648   -1.2578 H        1 ZINC000001530975    0.1400
45     H45     0.2158   -0.0447   -2.0875 H        1 ZINC000001530975    0.1400
46     H46     1.6325   -2.2530    0.3180 H        1 ZINC000001530975    0.1200
47     H47     3.2772   -3.4898    1.6208 H        1 ZINC000001530975    0.1300
48     H48     5.6295   -2.7806    1.6800 H        1 ZINC000001530975    0.1300
49     H49     6.3753   -0.8231    0.4374 H        1 ZINC000001530975    0.1400
50     H50     5.8423    1.0704   -1.0737 H        1 ZINC000001530975    0.1400
51     H51     4.1979    2.3059   -2.3788 H        1 ZINC000001530975    0.1400
52     H52     1.8471    1.5934   -2.4426 H        1 ZINC000001530975    0.1300
@<TRIPOS>BOND
1     1     2     1
2     1     26    1
3     1     27    1
4     1     28    1
5     2     3     1
6     2     4     1
7     2     15    1
8     4     5     1
9     4     29    1
10    4     30    1
11    5     14    ar
12    5     6     ar
13    6     7     ar
14    6     31    1
15    7     8     ar
16    7     32    1
17    8     9     1
18    8     13    ar
19    9     10    1
20    9     11    1
21    9     12    1
22    10    33    1
23    10    34    1
24    10    35    1
25    11    36    1
26    11    37    1
27    11    38    1
28    12    39    1
29    12    40    1
30    12    41    1
31    13    14    ar
32    13    42    1
33    14    43    1
34    15    16    1
35    15    44    1
36    15    45    1
37    16    25    ar
38    16    17    ar
39    17    22    ar
40    17    18    ar
41    18    19    ar
42    18    46    1
43    19    20    ar
44    19    47    1
45    20    21    ar
46    20    48    1
47    21    22    ar
48    21    49    1
49    22    23    ar
50    23    24    ar
51    23    50    1
52    24    25    ar
53    24    51    1
54    25    52    1
@<TRIPOS>SUBSTRUCTURE
1   ZINC000001530975 1     RESIDUE    1   A     ZIN   1
