@<TRIPOS>MOLECULE
ZINC000001530618
55    56    1     0     0
SMALL
USER_CHARGES
@<TRIPOS>ATOM
1      C1      0.8086    0.6940   -0.7700 C.3      1 ZINC000001530618   -0.1900
2      C2      0.2797    0.7636    0.6640 C.3      1 ZINC000001530618    0.0200
3      C3      0.1566    2.2274    1.0916 C.3      1 ZINC000001530618   -0.2000
4      N4     -1.0397    0.1213    0.7310 N.4      1 ZINC000001530618   -0.3800
5      H5     -1.5944    0.5661    1.4469 H        1 ZINC000001530618    0.4200
6      C6     -1.7160    0.2552   -0.5662 C.3      1 ZINC000001530618   -0.0400
7      C7     -2.0350    1.7290   -0.8253 C.3      1 ZINC000001530618   -0.1300
8      C8     -2.8980    1.8506   -2.0828 C.3      1 ZINC000001530618    0.0300
9      C9     -4.2106    1.1441   -1.8615 C.2      1 ZINC000001530618    0.5200
10     N10    -5.0287    1.5386   -0.8657 N.am     1 ZINC000001530618   -0.8500
11     O11    -4.5308    0.2206   -2.5794 O.2      1 ZINC000001530618   -0.5100
12     C12    -2.1791    1.2213   -3.2482 C.ar     1 ZINC000001530618   -0.0900
13     C13    -2.0762   -0.1545   -3.3356 C.ar     1 ZINC000001530618   -0.1000
14     C14    -1.4167   -0.7317   -4.4047 C.ar     1 ZINC000001530618   -0.1200
15     C15    -0.8606    0.0668   -5.3865 C.ar     1 ZINC000001530618   -0.1000
16     C16    -0.9643    1.4425   -5.2996 C.ar     1 ZINC000001530618   -0.1100
17     C17    -1.6274    2.0196   -4.2328 C.ar     1 ZINC000001530618   -0.1000
18     C18    -3.1543    3.3061   -2.3773 C.ar     1 ZINC000001530618    0.1200
19     C19    -3.8120    3.6623   -3.5393 C.ar     1 ZINC000001530618   -0.1500
20     C20    -4.0433    5.0043   -3.8006 C.ar     1 ZINC000001530618   -0.0700
21     C21    -3.6023    5.9415   -2.8792 C.ar     1 ZINC000001530618   -0.1600
22     C22    -2.9514    5.5102   -1.7387 C.ar     1 ZINC000001530618    0.1000
23     N23    -2.7531    4.2250   -1.5205 N.ar     1 ZINC000001530618   -0.4800
24     C24    -0.8754   -1.3026    1.0528 C.3      1 ZINC000001530618    0.0200
25     C25    -0.2882   -1.4432    2.4586 C.3      1 ZINC000001530618   -0.1800
26     C26    -2.2368   -1.9986    0.9967 C.3      1 ZINC000001530618   -0.1900
27     H27     1.7891    1.1675   -0.8191 H        1 ZINC000001530618    0.1000
28     H28     0.8930   -0.3488   -1.0759 H        1 ZINC000001530618    0.0800
29     H29     0.1204    1.2136   -1.4367 H        1 ZINC000001530618    0.0900
30     H30     0.9696    0.2469    1.3312 H        1 ZINC000001530618    0.1400
31     H31    -0.5564    2.7367    0.4432 H        1 ZINC000001530618    0.1000
32     H32    -0.1914    2.2765    2.1234 H        1 ZINC000001530618    0.0800
33     H33     1.1297    2.7120    1.0129 H        1 ZINC000001530618    0.1100
34     H34    -1.0649   -0.1199   -1.3558 H        1 ZINC000001530618    0.1500
35     H35    -2.6416   -0.3203   -0.5545 H        1 ZINC000001530618    0.1300
36     H36    -2.5758    2.1391    0.0276 H        1 ZINC000001530618    0.1000
37     H37    -1.1066    2.2822   -0.9669 H        1 ZINC000001530618    0.1200
38     H38    -4.7726    2.2773   -0.2916 H        1 ZINC000001530618    0.4000
39     H39    -5.8736    1.0839   -0.7233 H        1 ZINC000001530618    0.4100
40     H40    -2.5107   -0.7783   -2.5685 H        1 ZINC000001530618    0.1200
41     H41    -1.3357   -1.8065   -4.4726 H        1 ZINC000001530618    0.1300
42     H42    -0.3447   -0.3842   -6.2213 H        1 ZINC000001530618    0.1300
43     H43    -0.5295    2.0663   -6.0665 H        1 ZINC000001530618    0.1300
44     H44    -1.7084    3.0944   -4.1648 H        1 ZINC000001530618    0.1200
45     H45    -4.1414    2.9049   -4.2352 H        1 ZINC000001530618    0.1400
46     H46    -4.5545    5.3121   -4.7008 H        1 ZINC000001530618    0.1400
47     H47    -3.7650    6.9954   -3.0505 H        1 ZINC000001530618    0.1400
48     H48    -2.6044    6.2340   -1.0161 H        1 ZINC000001530618    0.1700
49     H49    -0.2019   -1.7631    0.3300 H        1 ZINC000001530618    0.1400
50     H50    -0.9969   -1.0529    3.1891 H        1 ZINC000001530618    0.0800
51     H51    -0.0936   -2.4952    2.6675 H        1 ZINC000001530618    0.1100
52     H52     0.6440   -0.8819    2.5208 H        1 ZINC000001530618    0.0800
53     H53    -2.9103   -1.5381    1.7195 H        1 ZINC000001530618    0.0800
54     H54    -2.6551   -1.8984   -0.0048 H        1 ZINC000001530618    0.0800
55     H55    -2.1148   -3.0551    1.2355 H        1 ZINC000001530618    0.1100
@<TRIPOS>BOND
1     1     2     1
2     1     27    1
3     1     28    1
4     1     29    1
5     2     3     1
6     2     4     1
7     2     30    1
8     3     31    1
9     3     32    1
10    3     33    1
11    4     5     1
12    4     6     1
13    4     24    1
14    6     7     1
15    6     34    1
16    6     35    1
17    7     8     1
18    7     36    1
19    7     37    1
20    8     9     1
21    8     12    1
22    8     18    1
23    9     10    am
24    9     11    2
25    10    38    1
26    10    39    1
27    12    17    ar
28    12    13    ar
29    13    14    ar
30    13    40    1
31    14    15    ar
32    14    41    1
33    15    16    ar
34    15    42    1
35    16    17    ar
36    16    43    1
37    17    44    1
38    18    23    ar
39    18    19    ar
40    19    20    ar
41    19    45    1
42    20    21    ar
43    20    46    1
44    21    22    ar
45    21    47    1
46    22    23    ar
47    22    48    1
48    24    25    1
49    24    26    1
50    24    49    1
51    25    50    1
52    25    51    1
53    25    52    1
54    26    53    1
55    26    54    1
56    26    55    1
@<TRIPOS>SUBSTRUCTURE
1   ZINC000001530618 1     RESIDUE    1   A     ZIN   1
