@<TRIPOS>MOLECULE
ZINC000003930376
66    67    1     0     0
SMALL
USER_CHARGES
@<TRIPOS>ATOM
1      C1     -0.0187    1.5258    0.0104 C.3      1 ZINC000003930376   -0.1500
2      C2      0.0021   -0.0041    0.0020 C.3      1 ZINC000003930376   -0.0500
3      C3      0.7421   -0.5109    1.2415 C.3      1 ZINC000003930376   -0.1400
4      C4     -1.4333   -0.5336    0.0129 C.3      1 ZINC000003930376   -0.1400
5      C5      0.7074   -0.4901   -1.2379 C.2      1 ZINC000003930376    0.4700
6      O6      1.1483    0.3055   -2.0332 O.2      1 ZINC000003930376   -0.4900
7      O7      0.8459   -1.8068   -1.4587 O.3      1 ZINC000003930376   -0.3300
8      C8      1.5361   -2.2025   -2.6733 C.3      1 ZINC000003930376    0.2800
9      O9      2.9397   -1.9850   -2.5161 O.3      1 ZINC000003930376   -0.7600
10     P10     4.0128   -2.3145   -3.6702 P.3      1 ZINC000003930376    2.3600
11     O11     3.6327   -1.6075   -4.9136 O.2      1 ZINC000003930376   -0.9900
12     C12     5.6665   -1.7616   -3.1381 C.3      1 ZINC000003930376   -0.5200
13     O13     5.6433   -0.3533   -2.8972 O.3      1 ZINC000003930376   -0.3300
14     C14     4.9904    0.0178   -1.6815 C.3      1 ZINC000003930376    0.0100
15     C15     5.0252    1.5397   -1.5278 C.3      1 ZINC000003930376    0.1200
16     N16     4.3559    1.9201   -0.2814 N.pl3    1 ZINC000003930376   -0.4700
17     C17     3.0512    2.2919   -0.1474 C.2      1 ZINC000003930376    0.2500
18     N18     2.7917    2.5623    1.0989 N.2      1 ZINC000003930376   -0.4500
19     C19     3.9101    2.3818    1.8418 C.ar     1 ZINC000003930376   -0.1100
20     C20     4.2237    2.5176    3.2047 C.ar     1 ZINC000003930376    0.5100
21     N21     3.2632    2.9216    4.1154 N.pl3    1 ZINC000003930376   -0.8200
22     N22     5.4641    2.2486    3.5990 N.ar     1 ZINC000003930376   -0.5900
23     C23     6.3869    1.8621    2.7372 C.ar     1 ZINC000003930376    0.3700
24     N24     6.1390    1.7216    1.4520 N.ar     1 ZINC000003930376   -0.5600
25     C25     4.9257    1.9618    0.9660 C.ar     1 ZINC000003930376    0.3000
26     O26     4.0390   -3.9012   -3.9415 O.3      1 ZINC000003930376   -0.7600
27     C27     2.9223   -4.6188   -4.4708 C.3      1 ZINC000003930376    0.2800
28     O28     3.2653   -6.0241   -4.5959 O.3      1 ZINC000003930376   -0.3300
29     C29     3.3054   -6.7447   -3.4641 C.2      1 ZINC000003930376    0.4700
30     O30     3.0621   -6.2186   -2.4040 O.2      1 ZINC000003930376   -0.5000
31     C31     3.6541   -8.2099   -3.5157 C.3      1 ZINC000003930376   -0.0600
32     C32     3.6293   -8.7902   -2.1002 C.3      1 ZINC000003930376   -0.1400
33     C33     2.6345   -8.9464   -4.3868 C.3      1 ZINC000003930376   -0.1500
34     C34     5.0526   -8.3807   -4.1124 C.3      1 ZINC000003930376   -0.1500
35     H35     1.0039    1.9031    0.0027 H        1 ZINC000003930376    0.0800
36     H36    -0.5459    1.8868   -0.8726 H        1 ZINC000003930376    0.0600
37     H37    -0.5289    1.8773    0.9072 H        1 ZINC000003930376    0.0700
38     H38     0.2319   -0.1594    2.1383 H        1 ZINC000003930376    0.0800
39     H39     0.7568   -1.6008    1.2356 H        1 ZINC000003930376    0.0700
40     H40     1.7647   -0.1336    1.2338 H        1 ZINC000003930376    0.0600
41     H41    -1.9605   -0.1726   -0.8702 H        1 ZINC000003930376    0.0600
42     H42    -1.4185   -1.6235    0.0069 H        1 ZINC000003930376    0.0700
43     H43    -1.9435   -0.1821    0.9097 H        1 ZINC000003930376    0.0800
44     H44     1.3518   -3.2590   -2.8683 H        1 ZINC000003930376    0.1100
45     H45     1.1680   -1.6090   -3.5102 H        1 ZINC000003930376    0.1000
46     H46     5.9464   -2.2823   -2.2223 H        1 ZINC000003930376    0.0900
47     H47     6.3930   -1.9847   -3.9194 H        1 ZINC000003930376    0.1500
48     H48     3.9548   -0.3212   -1.7070 H        1 ZINC000003930376    0.0800
49     H49     5.5033   -0.4443   -0.8380 H        1 ZINC000003930376    0.0600
50     H50     6.0608    1.8787   -1.5023 H        1 ZINC000003930376    0.1100
51     H51     4.5123    2.0018   -2.3713 H        1 ZINC000003930376    0.1200
52     H52     2.3382    2.3535   -0.9563 H        1 ZINC000003930376    0.2300
53     H53     2.3612    3.1147    3.8154 H        1 ZINC000003930376    0.4200
54     H54     3.4919    3.0117    5.0537 H        1 ZINC000003930376    0.4100
55     H55     7.3825    1.6538    3.1003 H        1 ZINC000003930376    0.2000
56     H56     2.0701   -4.5111   -3.7997 H        1 ZINC000003930376    0.0700
57     H57     2.6651   -4.2188   -5.4516 H        1 ZINC000003930376    0.1400
58     H58     2.6330   -8.6685   -1.6751 H        1 ZINC000003930376    0.0700
59     H59     3.8815   -9.8500   -2.1375 H        1 ZINC000003930376    0.0700
60     H60     4.3557   -8.2655   -1.4797 H        1 ZINC000003930376    0.0600
61     H61     2.6522   -8.5330   -5.3952 H        1 ZINC000003930376    0.0700
62     H62     2.8867  -10.0062   -4.4241 H        1 ZINC000003930376    0.0800
63     H63     1.6382   -8.8248   -3.9617 H        1 ZINC000003930376    0.0600
64     H64     5.7789   -7.8560   -3.4919 H        1 ZINC000003930376    0.0600
65     H65     5.3047   -9.4404   -4.1497 H        1 ZINC000003930376    0.0800
66     H66     5.0702   -7.9673   -5.1208 H        1 ZINC000003930376    0.0700
@<TRIPOS>BOND
1     1     2     1
2     1     35    1
3     1     36    1
4     1     37    1
5     2     3     1
6     2     4     1
7     2     5     1
8     3     38    1
9     3     39    1
10    3     40    1
11    4     41    1
12    4     42    1
13    4     43    1
14    5     6     2
15    5     7     1
16    7     8     1
17    8     9     1
18    8     44    1
19    8     45    1
20    9     10    1
21    10    11    2
22    10    12    1
23    10    26    1
24    12    13    1
25    12    46    1
26    12    47    1
27    13    14    1
28    14    15    1
29    14    48    1
30    14    49    1
31    15    16    1
32    15    50    1
33    15    51    1
34    16    25    1
35    16    17    1
36    17    18    2
37    17    52    1
38    18    19    1
39    19    25    ar
40    19    20    ar
41    20    21    1
42    20    22    ar
43    21    53    1
44    21    54    1
45    22    23    ar
46    23    24    ar
47    23    55    1
48    24    25    ar
49    26    27    1
50    27    28    1
51    27    56    1
52    27    57    1
53    28    29    1
54    29    30    2
55    29    31    1
56    31    32    1
57    31    33    1
58    31    34    1
59    32    58    1
60    32    59    1
61    32    60    1
62    33    61    1
63    33    62    1
64    33    63    1
65    34    64    1
66    34    65    1
67    34    66    1
@<TRIPOS>SUBSTRUCTURE
1   ZINC000003930376 1     RESIDUE    1   A     ZIN   1
