@<TRIPOS>MOLECULE
ZINC000000004351
42    45    1     0     0
SMALL
USER_CHARGES
@<TRIPOS>ATOM
1      C1     -0.0178    1.4648    0.0101 C.3      1 ZINC000000004351   -0.0500
2      N2      0.0021   -0.0041    0.0020 N.4      1 ZINC000000004351   -0.3800
3      H3     -0.9453   -0.3513    0.0092 H        1 ZINC000000004351    0.4200
4      C4      0.7063   -0.4874    1.1956 C.3      1 ZINC000000004351    0.0000
5      C5      0.5798   -2.0127    1.2810 C.3      1 ZINC000000004351   -0.1100
6      C6      1.0749   -2.6021   -0.0235 C.2      1 ZINC000000004351   -0.1500
7      C7      1.9451   -3.6219   -0.0384 C.2      1 ZINC000000004351    0.0300
8      C8      2.4665   -4.2337    1.2257 C.2      1 ZINC000000004351   -0.0100
9      C9      3.8293   -4.4094    1.4726 C.2      1 ZINC000000004351   -0.3000
10     S10     4.0214   -5.1458    3.0610 S.3      1 ZINC000000004351    0.3100
11     C11     2.3372   -5.1915    3.3111 C.2      1 ZINC000000004351   -0.2300
12     C12     1.6762   -4.6848    2.2714 C.2      1 ZINC000000004351   -0.1500
13     C13     4.8918   -4.0715    0.6112 C.2      1 ZINC000000004351    0.4200
14     O14     6.0190   -4.4166    0.9052 O.2      1 ZINC000000004351   -0.4500
15     C15     4.6766   -3.2987   -0.6592 C.3      1 ZINC000000004351   -0.1100
16     C16     3.8051   -4.0845   -1.6060 C.ar     1 ZINC000000004351   -0.0700
17     C17     4.3188   -4.6712   -2.7392 C.ar     1 ZINC000000004351   -0.1000
18     C18     3.4785   -5.3658   -3.5943 C.ar     1 ZINC000000004351   -0.1000
19     C19     2.1275   -5.4704   -3.3176 C.ar     1 ZINC000000004351   -0.1100
20     C20     1.6037   -4.8922   -2.1761 C.ar     1 ZINC000000004351   -0.1000
21     C21     2.4408   -4.2116   -1.3113 C.ar     1 ZINC000000004351   -0.0700
22     C22     0.5517   -1.9989   -1.3106 C.3      1 ZINC000000004351   -0.1000
23     C23     0.6833   -0.4745   -1.2099 C.3      1 ZINC000000004351    0.0000
24     H24     1.0047    1.8421    0.0024 H        1 ZINC000000004351    0.1200
25     H25    -0.5450    1.8259   -0.8730 H        1 ZINC000000004351    0.1200
26     H26    -0.5280    1.8163    0.9069 H        1 ZINC000000004351    0.1200
27     H27     1.7593   -0.2132    1.1322 H        1 ZINC000000004351    0.1300
28     H28     0.2662   -0.0360    2.0848 H        1 ZINC000000004351    0.1300
29     H29     1.1854   -2.3863    2.1067 H        1 ZINC000000004351    0.1200
30     H30    -0.4637   -2.2871    1.4360 H        1 ZINC000000004351    0.1000
31     H31     1.8647   -5.5824    4.2001 H        1 ZINC000000004351    0.1800
32     H32     0.5980   -4.6294    2.2448 H        1 ZINC000000004351    0.1500
33     H33     4.1934   -2.3496   -0.4271 H        1 ZINC000000004351    0.1000
34     H34     5.6397   -3.1049   -1.1315 H        1 ZINC000000004351    0.1100
35     H35     5.3725   -4.5904   -2.9617 H        1 ZINC000000004351    0.1300
36     H36     3.8813   -5.8283   -4.4832 H        1 ZINC000000004351    0.1300
37     H37     1.4793   -6.0060   -3.9955 H        1 ZINC000000004351    0.1300
38     H38     0.5487   -4.9727   -1.9596 H        1 ZINC000000004351    0.1300
39     H39     1.1393   -2.3635   -2.1532 H        1 ZINC000000004351    0.1200
40     H40    -0.4949   -2.2717   -1.4459 H        1 ZINC000000004351    0.1000
41     H41     0.2246   -0.0118   -2.0837 H        1 ZINC000000004351    0.1300
42     H42     1.7380   -0.2030   -1.1665 H        1 ZINC000000004351    0.1300
@<TRIPOS>BOND
1     1     2     1
2     1     24    1
3     1     25    1
4     1     26    1
5     2     3     1
6     2     23    1
7     2     4     1
8     4     5     1
9     4     27    1
10    4     28    1
11    5     6     1
12    5     29    1
13    5     30    1
14    6     7     2
15    6     22    1
16    7     21    1
17    7     8     1
18    8     12    1
19    8     9     2
20    9     10    1
21    9     13    1
22    10    11    1
23    11    12    2
24    11    31    1
25    12    32    1
26    13    14    2
27    13    15    1
28    15    16    1
29    15    33    1
30    15    34    1
31    16    21    ar
32    16    17    ar
33    17    18    ar
34    17    35    1
35    18    19    ar
36    18    36    1
37    19    20    ar
38    19    37    1
39    20    21    ar
40    20    38    1
41    22    23    1
42    22    39    1
43    22    40    1
44    23    41    1
45    23    42    1
@<TRIPOS>SUBSTRUCTURE
1   ZINC000000004351 1     RESIDUE    1   A     ZIN   1
