@<TRIPOS>MOLECULE
ZINC000006858022
68    71    1     0     0
SMALL
USER_CHARGES
@<TRIPOS>ATOM
1      C1     -0.0246    1.5832   -0.0260 C.3      1 ZINC000006858022   -0.1500
2      C2      0.0023    0.0537    0.0008 C.3      1 ZINC000006858022   -0.0900
3      H3     -1.0187   -0.3275    0.0174 H        1 ZINC000006858022    0.0700
4      C4      0.7446   -0.4215    1.2514 C.3      1 ZINC000006858022   -0.0900
5      C5     -0.0405   -0.0087    2.4981 C.3      1 ZINC000006858022   -0.1800
6      C6      0.6906   -0.4768    3.7300 C.2      1 ZINC000006858022    0.4900
7      O7      1.7421   -1.0842    3.6209 O.co2    1 ZINC000006858022   -0.7000
8      O8      0.2306   -0.2479    4.8357 O.co2    1 ZINC000006858022   -0.7100
9      C9      0.7203   -0.4657   -1.2465 C.3      1 ZINC000006858022   -0.0600
10     H10     1.7475   -0.1017   -1.2694 H        1 ZINC000006858022    0.0800
11     C11     0.6989   -2.0145   -1.2725 C.3      1 ZINC000006858022   -0.1200
12     C12     0.0109   -2.4207   -2.6044 C.3      1 ZINC000006858022   -0.1200
13     C13     0.2407   -1.1959   -3.4965 C.3      1 ZINC000006858022   -0.0700
14     H14     1.2721   -1.1701   -3.8480 H        1 ZINC000006858022    0.0900
15     C15    -0.7179   -1.0364   -4.6613 C.3      1 ZINC000006858022   -0.0700
16     H16    -1.7419   -0.9876   -4.2911 H        1 ZINC000006858022    0.0900
17     C17    -0.5754   -2.2089   -5.6327 C.3      1 ZINC000006858022    0.1100
18     H18    -0.8309   -3.1373   -5.1219 H        1 ZINC000006858022    0.0500
19     O19     0.7727   -2.2783   -6.1015 O.3      1 ZINC000006858022   -0.5500
20     C20    -1.5189   -2.0032   -6.8197 C.3      1 ZINC000006858022   -0.1500
21     C21    -1.1593   -0.7015   -7.5386 C.3      1 ZINC000006858022   -0.0600
22     H22    -1.8346   -0.5535   -8.3813 H        1 ZINC000006858022    0.0600
23     C23     0.2814   -0.7821   -8.0477 C.3      1 ZINC000006858022   -0.1400
24     C24     0.6406    0.5183   -8.7693 C.3      1 ZINC000006858022    0.1100
25     H25    -0.0351    0.6648   -9.6120 H        1 ZINC000006858022    0.0400
26     O26     1.9860    0.4432   -9.2449 O.3      1 ZINC000006858022   -0.5700
27     C27     0.5076    1.6937   -7.7988 C.3      1 ZINC000006858022   -0.1500
28     C28    -0.9327    1.7740   -7.2891 C.3      1 ZINC000006858022   -0.1100
29     C29    -1.2909    0.4734   -6.5672 C.3      1 ZINC000006858022   -0.0500
30     C30    -2.7311    0.5533   -6.0571 C.3      1 ZINC000006858022   -0.1500
31     C31    -0.3593    0.2786   -5.3709 C.3      1 ZINC000006858022   -0.0600
32     H32     0.6662    0.1998   -5.7318 H        1 ZINC000006858022    0.0900
33     C33    -0.4611    1.4742   -4.4299 C.3      1 ZINC000006858022   -0.1500
34     C34     0.3902    1.2675   -3.1658 C.3      1 ZINC000006858022    0.1200
35     H35     0.2559    2.1094   -2.4866 H        1 ZINC000006858022    0.0600
36     O36     1.7687    1.1464   -3.5226 O.3      1 ZINC000006858022   -0.5500
37     C37    -0.0232   -0.0290   -2.5045 C.3      1 ZINC000006858022   -0.0500
38     C38    -1.5298   -0.0162   -2.2382 C.3      1 ZINC000006858022   -0.1600
39     H39     0.9964    1.9643   -0.0426 H        1 ZINC000006858022    0.0500
40     H40    -0.5534    1.9217   -0.9170 H        1 ZINC000006858022    0.0500
41     H41    -0.5361    1.9531    0.8626 H        1 ZINC000006858022    0.0500
42     H42     0.8415   -1.5069    1.2260 H        1 ZINC000006858022    0.0600
43     H43     1.7357    0.0312    1.2797 H        1 ZINC000006858022    0.0600
44     H44    -0.1374    1.0767    2.5235 H        1 ZINC000006858022    0.0600
45     H45    -1.0316   -0.4614    2.4698 H        1 ZINC000006858022    0.0500
46     H46     1.7168   -2.4032   -1.2433 H        1 ZINC000006858022    0.0600
47     H47     0.1282   -2.3950   -0.4253 H        1 ZINC000006858022    0.0700
48     H48     0.4874   -3.3034   -3.0310 H        1 ZINC000006858022    0.0600
49     H49    -1.0546   -2.5921   -2.4515 H        1 ZINC000006858022    0.0600
50     H50     0.9362   -3.0007   -6.7233 H        1 ZINC000006858022    0.3700
51     H51    -1.4200   -2.8396   -7.5116 H        1 ZINC000006858022    0.0600
52     H52    -2.5468   -1.9481   -6.4613 H        1 ZINC000006858022    0.0700
53     H53     0.9569   -0.9286   -7.2049 H        1 ZINC000006858022    0.1300
54     H54     0.3761   -1.6194   -8.7391 H        1 ZINC000006858022    0.0500
55     H55     2.2822    1.2354   -9.7137 H        1 ZINC000006858022    0.3700
56     H56     1.1836    1.5474   -6.9563 H        1 ZINC000006858022    0.0800
57     H57     0.7632    2.6201   -8.3131 H        1 ZINC000006858022    0.0600
58     H58    -1.0273    2.6112   -6.5976 H        1 ZINC000006858022    0.0700
59     H59    -1.6087    1.9204   -8.1316 H        1 ZINC000006858022    0.0600
60     H60    -3.4073    0.6995   -6.8995 H        1 ZINC000006858022    0.0500
61     H61    -2.9864   -0.3732   -5.5429 H        1 ZINC000006858022    0.0600
62     H62    -2.8258    1.3906   -5.3657 H        1 ZINC000006858022    0.0600
63     H63    -0.1159    2.3677   -4.9500 H        1 ZINC000006858022    0.0600
64     H64    -1.5027    1.6119   -4.1397 H        1 ZINC000006858022    0.0700
65     H65     2.1262    1.9200   -3.9794 H        1 ZINC000006858022    0.3700
66     H66    -2.0605    0.2064   -3.1639 H        1 ZINC000006858022    0.0600
67     H67    -1.8413   -0.9924   -1.8665 H        1 ZINC000006858022    0.0600
68     H68    -1.7608    0.7464   -1.4945 H        1 ZINC000006858022    0.0600
@<TRIPOS>BOND
1     1     2     1
2     1     39    1
3     1     40    1
4     1     41    1
5     2     3     1
6     2     4     1
7     2     9     1
8     4     5     1
9     4     42    1
10    4     43    1
11    5     6     1
12    5     44    1
13    5     45    1
14    6     7     ar
15    6     8     ar
16    9     10    1
17    9     37    1
18    9     11    1
19    11    12    1
20    11    46    1
21    11    47    1
22    12    13    1
23    12    48    1
24    12    49    1
25    13    14    1
26    13    37    1
27    13    15    1
28    15    16    1
29    15    31    1
30    15    17    1
31    17    18    1
32    17    19    1
33    17    20    1
34    19    50    1
35    20    21    1
36    20    51    1
37    20    52    1
38    21    22    1
39    21    29    1
40    21    23    1
41    23    24    1
42    23    53    1
43    23    54    1
44    24    25    1
45    24    26    1
46    24    27    1
47    26    55    1
48    27    28    1
49    27    56    1
50    27    57    1
51    28    29    1
52    28    58    1
53    28    59    1
54    29    30    1
55    29    31    1
56    30    60    1
57    30    61    1
58    30    62    1
59    31    32    1
60    31    33    1
61    33    34    1
62    33    63    1
63    33    64    1
64    34    35    1
65    34    36    1
66    34    37    1
67    36    65    1
68    37    38    1
69    38    66    1
70    38    67    1
71    38    68    1
@<TRIPOS>SUBSTRUCTURE
1   ZINC000006858022 1     RESIDUE    1   A     ZIN   1
