@<TRIPOS>MOLECULE
ZINC000014879972
81    84    1     0     0
SMALL
USER_CHARGES
@<TRIPOS>ATOM
1      C1      0.0176    1.7716    0.7565 C.3      1 ZINC000014879972    0.0300
2      N2      0.0791    0.3039    0.7478 N.3      1 ZINC000014879972   -0.5000
3      C3      0.8540   -0.1973    1.8907 C.3      1 ZINC000014879972    0.0300
4      C4     -1.2052   -0.2517    0.7303 C.ar     1 ZINC000014879972    0.0700
5      C5     -2.0948    0.0239    1.7635 C.ar     1 ZINC000014879972   -0.1200
6      C6     -3.3680   -0.5243    1.7559 C.ar     1 ZINC000014879972    0.0700
7      N7     -4.2565   -0.2456    2.8031 N.am     1 ZINC000014879972   -0.6300
8      C8     -3.7913   -0.0916    4.0586 C.2      1 ZINC000014879972    0.4900
9      O9     -2.5971   -0.1149    4.2700 O.2      1 ZINC000014879972   -0.5200
10     C10    -4.7547    0.1096    5.1998 C.3      1 ZINC000014879972   -0.0400
11     N11    -4.0045    0.2510    6.4548 N.4      1 ZINC000014879972   -0.4900
12     H12    -3.4603   -0.5830    6.6172 H        1 ZINC000014879972    0.4300
13     H13    -3.3883    1.0474    6.3905 H        1 ZINC000014879972    0.4300
14     C14    -4.9436    0.4471    7.5673 C.3      1 ZINC000014879972    0.0600
15     C15    -5.8779   -0.7605    7.6649 C.3      1 ZINC000014879972   -0.1800
16     C16    -4.1622    0.5944    8.8744 C.3      1 ZINC000014879972   -0.1800
17     C17    -5.7688    1.7118    7.3211 C.3      1 ZINC000014879972   -0.1800
18     C18    -3.7650   -1.3513    0.7080 C.ar     1 ZINC000014879972    0.1300
19     O19    -5.0099   -1.8947    0.7019 O.3      1 ZINC000014879972   -0.4600
20     C20    -2.8763   -1.6196   -0.3383 C.ar     1 ZINC000014879972   -0.0800
21     C21    -1.5893   -1.0691   -0.3172 C.ar     1 ZINC000014879972    0.0000
22     C22    -0.6209   -1.3952   -1.4249 C.3      1 ZINC000014879972   -0.0700
23     C23    -1.3756   -1.5269   -2.7453 C.3      1 ZINC000014879972    0.0100
24     H24    -1.7908   -0.5555   -3.0140 H        1 ZINC000014879972    0.0400
25     C25    -0.4191   -1.9815   -3.8507 C.3      1 ZINC000014879972   -0.1000
26     C26    -1.2409   -2.2380   -5.1099 C.3      1 ZINC000014879972   -0.0700
27     H27    -1.9155   -1.3929   -5.2465 H        1 ZINC000014879972    0.0900
28     C28    -0.3710   -2.3441   -6.3468 C.3      1 ZINC000014879972    0.0400
29     H29     0.3465   -1.5235   -6.3458 H        1 ZINC000014879972    0.1300
30     N30    -1.2220   -2.2307   -7.5388 N.4      1 ZINC000014879972   -0.3700
31     H31    -1.9496   -2.9287   -7.5003 H        1 ZINC000014879972    0.4300
32     C32    -1.8282   -0.8933   -7.5822 C.3      1 ZINC000014879972   -0.0500
33     C33    -0.4075   -2.4384   -8.7436 C.3      1 ZINC000014879972   -0.0500
34     C34     0.3759   -3.6427   -6.4067 C.2      1 ZINC000014879972    0.3000
35     O35     1.4702   -3.7254   -7.1778 O.3      1 ZINC000014879972   -0.5900
36     C36    -0.0216   -4.7497   -5.6993 C.2      1 ZINC000014879972   -0.4800
37     C37     0.7335   -6.0069   -5.8217 C.2      1 ZINC000014879972    0.5900
38     N38     0.2761   -7.1281   -5.2300 N.am     1 ZINC000014879972   -0.8700
39     O39     1.7706   -6.0341   -6.4568 O.2      1 ZINC000014879972   -0.5600
40     C40    -1.1912   -4.6859   -4.8244 C.2      1 ZINC000014879972    0.3900
41     O41    -1.4242   -5.5806   -4.0379 O.2      1 ZINC000014879972   -0.4800
42     C42    -2.0930   -3.4920   -4.9245 C.3      1 ZINC000014879972    0.0600
43     O43    -2.9940   -3.6427   -6.0234 O.3      1 ZINC000014879972   -0.5600
44     C44    -2.8410   -3.3784   -3.6230 C.2      1 ZINC000014879972    0.3800
45     O45    -3.7871   -4.1189   -3.4356 O.2      1 ZINC000014879972   -0.5000
46     C46    -2.4995   -2.5194   -2.6139 C.2      1 ZINC000014879972   -0.4800
47     C47    -3.2696   -2.4923   -1.4550 C.2      1 ZINC000014879972    0.3400
48     O48    -4.3907   -3.2405   -1.3651 O.3      1 ZINC000014879972   -0.5800
49     H49     1.0275    2.1779    0.6992 H        1 ZINC000014879972    0.0700
50     H50    -0.5617    2.1161   -0.1001 H        1 ZINC000014879972    0.0700
51     H51    -0.4584    2.1099    1.6768 H        1 ZINC000014879972    0.0200
52     H52     0.3837    0.1273    2.8189 H        1 ZINC000014879972    0.0300
53     H53     0.8836   -1.2865    1.8599 H        1 ZINC000014879972    0.0700
54     H54     1.8696    0.1953    1.8413 H        1 ZINC000014879972    0.0700
55     H55    -1.7919    0.6679    2.5759 H        1 ZINC000014879972    0.1300
56     H56    -5.2064   -0.1636    2.6244 H        1 ZINC000014879972    0.4200
57     H57    -5.3426    1.0106    5.0244 H        1 ZINC000014879972    0.1600
58     H58    -5.4203   -0.7508    5.2693 H        1 ZINC000014879972    0.1700
59     H59    -5.2900   -1.6615    7.8402 H        1 ZINC000014879972    0.0900
60     H60    -6.5748   -0.6150    8.4903 H        1 ZINC000014879972    0.1100
61     H61    -6.4346   -0.8655    6.7336 H        1 ZINC000014879972    0.0800
62     H62    -3.4966    1.4548    8.8049 H        1 ZINC000014879972    0.0800
63     H63    -4.8591    0.7399    9.6999 H        1 ZINC000014879972    0.1100
64     H64    -3.5743   -0.3065    9.0498 H        1 ZINC000014879972    0.0800
65     H65    -6.3255    1.6069    6.3899 H        1 ZINC000014879972    0.0800
66     H66    -6.4657    1.8573    8.1465 H        1 ZINC000014879972    0.1100
67     H67    -5.1032    2.5721    7.2516 H        1 ZINC000014879972    0.0800
68     H68    -5.6751   -1.3489    0.2606 H        1 ZINC000014879972    0.3800
69     H69     0.1178   -0.5980   -1.5073 H        1 ZINC000014879972    0.0800
70     H70    -0.1161   -2.3348   -1.2004 H        1 ZINC000014879972    0.0800
71     H71     0.3176   -1.2018   -4.0441 H        1 ZINC000014879972    0.0700
72     H72     0.0855   -2.8987   -3.5470 H        1 ZINC000014879972    0.0800
73     H73    -2.3828   -0.7758   -8.5132 H        1 ZINC000014879972    0.1100
74     H74    -2.5068   -0.7744   -6.7375 H        1 ZINC000014879972    0.1200
75     H75    -1.0448   -0.1374   -7.5281 H        1 ZINC000014879972    0.1100
76     H76     0.0424   -3.4307   -8.7114 H        1 ZINC000014879972    0.1400
77     H77    -1.0389   -2.3542   -9.6280 H        1 ZINC000014879972    0.1100
78     H78     0.3785   -1.6844   -8.7852 H        1 ZINC000014879972    0.1100
79     H79    -0.5897   -7.1270   -4.7926 H        1 ZINC000014879972    0.4000
80     H80     0.8126   -7.9361   -5.2416 H        1 ZINC000014879972    0.3800
81     H81    -3.5668   -4.4191   -5.9587 H        1 ZINC000014879972    0.4000
@<TRIPOS>BOND
1     1     2     1
2     1     49    1
3     1     50    1
4     1     51    1
5     2     3     1
6     2     4     1
7     3     52    1
8     3     53    1
9     3     54    1
10    4     21    ar
11    4     5     ar
12    5     6     ar
13    5     55    1
14    6     7     1
15    6     18    ar
16    7     8     am
17    7     56    1
18    8     9     2
19    8     10    1
20    10    11    1
21    10    57    1
22    10    58    1
23    11    12    1
24    11    13    1
25    11    14    1
26    14    15    1
27    14    16    1
28    14    17    1
29    15    59    1
30    15    60    1
31    15    61    1
32    16    62    1
33    16    63    1
34    16    64    1
35    17    65    1
36    17    66    1
37    17    67    1
38    18    19    1
39    18    20    ar
40    19    68    1
41    20    47    1
42    20    21    ar
43    21    22    1
44    22    23    1
45    22    69    1
46    22    70    1
47    23    24    1
48    23    46    1
49    23    25    1
50    25    26    1
51    25    71    1
52    25    72    1
53    26    27    1
54    26    42    1
55    26    28    1
56    28    29    1
57    28    30    1
58    28    34    1
59    30    31    1
60    30    32    1
61    30    33    1
62    32    73    1
63    32    74    1
64    32    75    1
65    33    76    1
66    33    77    1
67    33    78    1
68    34    35    1
69    34    36    2
70    36    37    1
71    36    40    1
72    37    38    am
73    37    39    2
74    38    79    1
75    38    80    1
76    40    41    2
77    40    42    1
78    42    43    1
79    42    44    1
80    43    81    1
81    44    45    2
82    44    46    1
83    46    47    2
84    47    48    1
@<TRIPOS>SUBSTRUCTURE
1   ZINC000014879972 1     RESIDUE    1   A     ZIN   1
