@<TRIPOS>MOLECULE
ZINC000100074252
65    67    1     0     0
SMALL
USER_CHARGES
@<TRIPOS>ATOM
1      C1     -1.0612    2.0760   -0.6000 C.3      1 ZINC000100074252   -0.1600
2      C2     -0.7975    0.5702   -0.6624 C.3      1 ZINC000100074252    0.0800
3      C3      0.1565    0.1723    0.4656 C.3      1 ZINC000100074252   -0.1700
4      O4     -2.0509   -0.1473   -0.5118 O.3      1 ZINC000100074252   -0.3400
5      C5     -2.1490   -1.3377   -1.1242 C.2      1 ZINC000100074252    0.4600
6      O6     -1.2184   -1.7660   -1.7648 O.2      1 ZINC000100074252   -0.5000
7      C7     -3.4198   -2.1400   -1.0127 C.3      1 ZINC000100074252    0.0800
8      H8     -4.2501   -1.5642   -1.4217 H        1 ZINC000100074252    0.1000
9      C9     -3.6952   -2.4573    0.4585 C.3      1 ZINC000100074252   -0.1400
10     N10    -3.2754   -3.3933   -1.7652 N.3      1 ZINC000100074252   -1.0300
11     P11    -4.5440   -3.5934   -2.8528 P.3      1 ZINC000100074252    2.3400
12     O12    -4.4331   -4.9189   -3.5017 O.2      1 ZINC000100074252   -1.0000
13     O13    -4.4769   -2.4398   -3.9739 O.3      1 ZINC000100074252   -0.7600
14     C14    -3.5217   -2.4419   -5.0367 C.3      1 ZINC000100074252    0.1300
15     C15    -3.7352   -1.2089   -5.9169 C.3      1 ZINC000100074252    0.0400
16     H16    -4.7689   -1.1627   -6.2597 H        1 ZINC000100074252    0.1200
17     O17    -3.3919   -0.0080   -5.1918 O.3      1 ZINC000100074252   -0.3500
18     C18    -3.1477    0.9917   -6.2052 C.3      1 ZINC000100074252    0.2900
19     H19    -4.0906    1.3762   -6.5939 H        1 ZINC000100074252    0.1400
20     N20    -2.3387    2.0843   -5.6593 N.am     1 ZINC000100074252   -0.5300
21     C21    -1.5135    1.8495   -4.5933 C.2      1 ZINC000100074252    0.1800
22     C22    -0.7677    2.8565   -4.0905 C.2      1 ZINC000100074252   -0.2900
23     C23    -0.8563    4.1403   -4.6806 C.2      1 ZINC000100074252    0.5500
24     O24    -0.1931    5.0641   -4.2448 O.2      1 ZINC000100074252   -0.5100
25     N25    -1.6815    4.3308   -5.7298 N.am     1 ZINC000100074252   -0.6600
26     C26    -2.4100    3.3079   -6.2142 C.2      1 ZINC000100074252    0.7000
27     O27    -3.1497    3.4944   -7.1610 O.2      1 ZINC000100074252   -0.5200
28     C28    -2.3721    0.2476   -7.3148 C.3      1 ZINC000100074252    0.0900
29     C29    -0.8643    0.4287   -7.1286 C.3      1 ZINC000100074252   -0.1700
30     F30    -2.7669    0.7018   -8.5777 F        1 ZINC000100074252   -0.1600
31     C31    -2.7695   -1.2349   -7.1224 C.3      1 ZINC000100074252    0.0600
32     H32    -1.8916   -1.8391   -6.8937 H        1 ZINC000100074252    0.1000
33     O33    -3.4281   -1.7322   -8.2890 O.3      1 ZINC000100074252   -0.5300
34     O34    -5.9455   -3.4965   -2.0663 O.3      1 ZINC000100074252   -0.6100
35     C35    -7.0367   -3.6677   -2.8581 C.ar     1 ZINC000100074252    0.0800
36     C36    -7.5639   -2.5914   -3.5568 C.ar     1 ZINC000100074252   -0.1400
37     C37    -8.6729   -2.7681   -4.3613 C.ar     1 ZINC000100074252   -0.1000
38     C38    -9.2577   -4.0163   -4.4702 C.ar     1 ZINC000100074252   -0.1100
39     C39    -8.7344   -5.0905   -3.7745 C.ar     1 ZINC000100074252   -0.1000
40     C40    -7.6218   -4.9203   -2.9735 C.ar     1 ZINC000100074252   -0.1100
41     H41    -0.1203    2.6146   -0.7130 H        1 ZINC000100074252    0.0900
42     H42    -1.7409    2.3594   -1.4036 H        1 ZINC000100074252    0.0700
43     H43    -1.5102    2.3267    0.3611 H        1 ZINC000100074252    0.0700
44     H44    -0.3485    0.3194   -1.6234 H        1 ZINC000100074252    0.0900
45     H45    -0.2925    0.4231    1.4267 H        1 ZINC000100074252    0.0700
46     H46     0.3444   -0.9004    0.4212 H        1 ZINC000100074252    0.0600
47     H47     1.0974    0.7109    0.3526 H        1 ZINC000100074252    0.0800
48     H48    -3.7143   -1.5310    1.0326 H        1 ZINC000100074252    0.0800
49     H49    -4.6582   -2.9600    0.5477 H        1 ZINC000100074252    0.0800
50     H50    -2.9091   -3.1071    0.8433 H        1 ZINC000100074252    0.0800
51     H51    -2.3847   -3.4306   -2.2378 H        1 ZINC000100074252    0.4000
52     H52    -2.5146   -2.4210   -4.6201 H        1 ZINC000100074252    0.0700
53     H53    -3.6479   -3.3430   -5.6368 H        1 ZINC000100074252    0.1000
54     H54    -1.4593    0.8635   -4.1560 H        1 ZINC000100074252    0.1800
55     H55    -0.1125    2.6849   -3.2493 H        1 ZINC000100074252    0.1700
56     H56    -1.7477    5.2075   -6.1394 H        1 ZINC000100074252    0.4400
57     H57    -0.5527   -0.0500   -6.2003 H        1 ZINC000100074252    0.0800
58     H58    -0.3374   -0.0269   -7.9670 H        1 ZINC000100074252    0.0900
59     H59    -0.6286    1.4921   -7.0860 H        1 ZINC000100074252    0.0700
60     H60    -3.6994   -2.6580   -8.2230 H        1 ZINC000100074252    0.3900
61     H61    -7.1080   -1.6161   -3.4715 H        1 ZINC000100074252    0.1300
62     H62    -9.0837   -1.9305   -4.9055 H        1 ZINC000100074252    0.1300
63     H63   -10.1248   -4.1523   -5.0994 H        1 ZINC000100074252    0.1300
64     H64    -9.1931   -6.0644   -3.8609 H        1 ZINC000100074252    0.1400
65     H65    -7.2134   -5.7596   -2.4302 H        1 ZINC000100074252    0.1400
@<TRIPOS>BOND
1     1     2     1
2     1     41    1
3     1     42    1
4     1     43    1
5     2     3     1
6     2     4     1
7     2     44    1
8     3     45    1
9     3     46    1
10    3     47    1
11    4     5     1
12    5     6     2
13    5     7     1
14    7     8     1
15    7     9     1
16    7     10    1
17    9     48    1
18    9     49    1
19    9     50    1
20    10    11    1
21    10    51    1
22    11    12    2
23    11    13    1
24    11    34    1
25    13    14    1
26    14    15    1
27    14    52    1
28    14    53    1
29    15    16    1
30    15    31    1
31    15    17    1
32    17    18    1
33    18    19    1
34    18    20    1
35    18    28    1
36    20    26    am
37    20    21    1
38    21    22    2
39    21    54    1
40    22    23    1
41    22    55    1
42    23    24    2
43    23    25    am
44    25    26    am
45    25    56    1
46    26    27    2
47    28    29    1
48    28    30    1
49    28    31    1
50    29    57    1
51    29    58    1
52    29    59    1
53    31    32    1
54    31    33    1
55    33    60    1
56    34    35    1
57    35    40    ar
58    35    36    ar
59    36    37    ar
60    36    61    1
61    37    38    ar
62    37    62    1
63    38    39    ar
64    38    63    1
65    39    40    ar
66    39    64    1
67    40    65    1
@<TRIPOS>SUBSTRUCTURE
1   ZINC000100074252 1     RESIDUE    1   A     ZIN   1
