@<TRIPOS>MOLECULE
ZINC000052955754
78    85    1     0     0
SMALL
USER_CHARGES
@<TRIPOS>ATOM
1      C1     -0.0178    1.4648    0.0101 C.3      1 ZINC000052955754    0.0300
2      N2      0.0021   -0.0041    0.0020 N.3      1 ZINC000052955754   -0.5500
3      C3     -1.3517   -0.5470   -0.1445 C.3      1 ZINC000052955754    0.0800
4      C4     -1.2438   -2.0539   -0.4044 C.3      1 ZINC000052955754   -0.0700
5      H5     -0.7287   -2.2275   -1.3492 H        1 ZINC000052955754    0.1200
6      C6     -2.6227   -2.6594   -0.4595 C.2      1 ZINC000052955754    0.5300
7      O7     -3.5998   -1.9574   -0.3063 O.2      1 ZINC000052955754   -0.4800
8      N8     -2.7701   -3.9810   -0.6790 N.am     1 ZINC000052955754   -0.7400
9      C9     -4.1106   -4.5696   -0.7326 C.3      1 ZINC000052955754    0.3000
10     C10    -4.8224   -4.3910    0.6099 C.3      1 ZINC000052955754   -0.1500
11     O11    -4.0304   -5.9665   -1.0768 O.3      1 ZINC000052955754   -0.3400
12     C12    -4.1502   -5.9846   -2.5077 C.3      1 ZINC000052955754    0.4700
13     O13    -2.8490   -5.9335   -3.0962 O.3      1 ZINC000052955754   -0.5400
14     C14    -4.8464   -7.2486   -2.9710 C.3      1 ZINC000052955754    0.1500
15     H15    -5.5319   -7.5990   -2.1994 H        1 ZINC000052955754    0.1100
16     C16    -3.8161   -8.3519   -3.3011 C.3      1 ZINC000052955754   -0.1200
17     C17    -4.5997   -9.2685   -4.2714 C.3      1 ZINC000052955754   -0.1300
18     C18    -5.7287   -8.3826   -4.8339 C.3      1 ZINC000052955754    0.1000
19     N19    -5.5741   -7.0399   -4.2307 N.am     1 ZINC000052955754   -0.6100
20     C20    -5.9926   -5.8837   -4.7624 C.2      1 ZINC000052955754    0.5400
21     O21    -6.7061   -5.9031   -5.7429 O.2      1 ZINC000052955754   -0.5200
22     C22    -5.5937   -4.5610   -4.1649 C.3      1 ZINC000052955754    0.1700
23     H23    -6.4808   -3.9435   -4.0237 H        1 ZINC000052955754    0.1300
24     C24    -4.6204   -3.8485   -5.1061 C.3      1 ZINC000052955754   -0.0800
25     C25    -4.3169   -2.4738   -4.5682 C.ar     1 ZINC000052955754   -0.0800
26     C26    -5.1047   -1.3987   -4.9348 C.ar     1 ZINC000052955754   -0.1100
27     C27    -4.8264   -0.1378   -4.4414 C.ar     1 ZINC000052955754   -0.1100
28     C28    -3.7605    0.0480   -3.5810 C.ar     1 ZINC000052955754   -0.1100
29     C29    -2.9733   -1.0273   -3.2137 C.ar     1 ZINC000052955754   -0.1100
30     C30    -3.2542   -2.2890   -3.7037 C.ar     1 ZINC000052955754   -0.1100
31     N31    -4.9074   -4.7921   -2.8912 N.am     1 ZINC000052955754   -0.6500
32     C32    -4.9189   -3.9359   -1.8446 C.2      1 ZINC000052955754    0.5000
33     O33    -5.4947   -2.8696   -1.7954 O.2      1 ZINC000052955754   -0.4300
34     C34    -0.4613   -2.6751    0.7212 C.2      1 ZINC000052955754   -0.1400
35     C35     0.4116   -1.9787    1.4270 C.2      1 ZINC000052955754   -0.0400
36     C36     1.1417   -2.6411    2.5251 C.ar     1 ZINC000052955754   -0.0100
37     C37     2.3673   -2.0272    2.8577 C.ar     1 ZINC000052955754   -0.1300
38     C38     2.9323   -0.8518    2.2054 C.2      1 ZINC000052955754   -0.1700
39     C39     4.0769   -0.6196    2.8393 C.2      1 ZINC000052955754    0.0600
40     N40     4.2758   -1.5638    3.8347 N.pl3    1 ZINC000052955754   -0.5900
41     C41     3.2395   -2.4473    3.8658 C.ar     1 ZINC000052955754    0.1100
42     C42     2.8737   -3.5752    4.5993 C.ar     1 ZINC000052955754   -0.1200
43     C43     1.6706   -4.1905    4.2732 C.ar     1 ZINC000052955754   -0.1000
44     C44     0.8119   -3.7520    3.2675 C.ar     1 ZINC000052955754   -0.1300
45     C45     2.1987   -0.2089    1.0576 C.3      1 ZINC000052955754   -0.0200
46     C46     0.7005   -0.5233    1.1708 C.3      1 ZINC000052955754    0.1400
47     H47     0.3251    0.0251    2.0347 H        1 ZINC000052955754    0.0500
48     H48     1.0047    1.8421    0.0024 H        1 ZINC000052955754    0.0700
49     H49    -0.5450    1.8259   -0.8730 H        1 ZINC000052955754    0.0700
50     H50    -0.5280    1.8163    0.9069 H        1 ZINC000052955754    0.0300
51     H51    -1.9183   -0.3720    0.7701 H        1 ZINC000052955754    0.0500
52     H52    -1.8516   -0.0646   -0.9844 H        1 ZINC000052955754    0.0900
53     H53    -1.9887   -4.5424   -0.8015 H        1 ZINC000052955754    0.4100
54     H54    -4.9201   -3.3280    0.8308 H        1 ZINC000052955754    0.1000
55     H55    -5.8125   -4.8440    0.5593 H        1 ZINC000052955754    0.0800
56     H56    -4.2418   -4.8735    1.3961 H        1 ZINC000052955754    0.0800
57     H57    -2.3384   -5.1488   -2.8541 H        1 ZINC000052955754    0.3800
58     H58    -2.9400   -7.9283   -3.7921 H        1 ZINC000052955754    0.1000
59     H59    -3.5307   -8.8961   -2.4008 H        1 ZINC000052955754    0.0900
60     H60    -3.9500   -9.6108   -5.0768 H        1 ZINC000052955754    0.0800
61     H61    -5.0182  -10.1193   -3.7338 H        1 ZINC000052955754    0.0800
62     H62    -5.6473   -8.3203   -5.9191 H        1 ZINC000052955754    0.0900
63     H63    -6.6987   -8.7948   -4.5561 H        1 ZINC000052955754    0.0800
64     H64    -3.6968   -4.4231   -5.1766 H        1 ZINC000052955754    0.0900
65     H65    -5.0700   -3.7605   -6.0951 H        1 ZINC000052955754    0.1000
66     H66    -5.9375   -1.5439   -5.6071 H        1 ZINC000052955754    0.1200
67     H67    -5.4415    0.7023   -4.7285 H        1 ZINC000052955754    0.1200
68     H68    -3.5426    1.0332   -3.1961 H        1 ZINC000052955754    0.1200
69     H69    -2.1403   -0.8821   -2.5417 H        1 ZINC000052955754    0.1200
70     H70    -2.6391   -3.1290   -3.4167 H        1 ZINC000052955754    0.1000
71     H71    -0.6177   -3.7172    0.9582 H        1 ZINC000052955754    0.1200
72     H72     4.7555    0.1891    2.6114 H        1 ZINC000052955754    0.1700
73     H73     5.0444   -1.5912    4.4259 H        1 ZINC000052955754    0.4200
74     H74     3.5016   -3.9567    5.3908 H        1 ZINC000052955754    0.1300
75     H75     1.3826   -5.0659    4.8364 H        1 ZINC000052955754    0.1200
76     H76    -0.1085   -4.2819    3.0710 H        1 ZINC000052955754    0.1200
77     H77     2.3472    0.8704    1.0900 H        1 ZINC000052955754    0.0800
78     H78     2.5823   -0.6009    0.1156 H        1 ZINC000052955754    0.0800
@<TRIPOS>BOND
1     1     2     1
2     1     48    1
3     1     49    1
4     1     50    1
5     2     46    1
6     2     3     1
7     3     4     1
8     3     51    1
9     3     52    1
10    4     5     1
11    4     6     1
12    4     34    1
13    6     7     2
14    6     8     am
15    8     9     1
16    8     53    1
17    9     32    1
18    9     10    1
19    9     11    1
20    10    54    1
21    10    55    1
22    10    56    1
23    11    12    1
24    12    31    1
25    12    13    1
26    12    14    1
27    13    57    1
28    14    15    1
29    14    19    1
30    14    16    1
31    16    17    1
32    16    58    1
33    16    59    1
34    17    18    1
35    17    60    1
36    17    61    1
37    18    19    1
38    18    62    1
39    18    63    1
40    19    20    am
41    20    21    2
42    20    22    1
43    22    23    1
44    22    24    1
45    22    31    1
46    24    25    1
47    24    64    1
48    24    65    1
49    25    30    ar
50    25    26    ar
51    26    27    ar
52    26    66    1
53    27    28    ar
54    27    67    1
55    28    29    ar
56    28    68    1
57    29    30    ar
58    29    69    1
59    30    70    1
60    31    32    am
61    32    33    2
62    34    35    2
63    34    71    1
64    35    46    1
65    35    36    1
66    36    44    ar
67    36    37    ar
68    37    41    ar
69    37    38    1
70    38    39    2
71    38    45    1
72    39    40    1
73    39    72    1
74    40    41    1
75    40    73    1
76    41    42    ar
77    42    43    ar
78    42    74    1
79    43    44    ar
80    43    75    1
81    44    76    1
82    45    46    1
83    45    77    1
84    45    78    1
85    46    47    1
@<TRIPOS>SUBSTRUCTURE
1   ZINC000052955754 1     RESIDUE    1   A     ZIN   1
