@<TRIPOS>MOLECULE
ZINC000003995809
88    91    1     0     0
SMALL
USER_CHARGES
@<TRIPOS>ATOM
1      C1     -0.0187    1.5258    0.0104 C.3      1 ZINC000003995809   -0.1300
2      C2      0.0021   -0.0041    0.0020 C.3      1 ZINC000003995809   -0.0600
3      C3     -1.4164   -0.5318    0.0531 C.3      1 ZINC000003995809   -0.1000
4      C4     -2.0960    0.0779    1.2940 C.3      1 ZINC000003995809   -0.1100
5      C5     -1.3123   -0.2560    2.5549 C.3      1 ZINC000003995809   -0.0400
6      H6     -1.3188   -1.3389    2.6785 H        1 ZINC000003995809    0.0800
7      C7     -1.9359    0.3532    3.7774 C.ar     1 ZINC000003995809   -0.0800
8      C8     -3.3184    0.4685    3.8222 C.ar     1 ZINC000003995809   -0.1000
9      C9     -3.9425    1.0119    4.9252 C.ar     1 ZINC000003995809   -0.1500
10     C10    -3.1810    1.4457    6.0005 C.ar     1 ZINC000003995809    0.1000
11     O11    -3.7862    1.9771    7.0952 O.3      1 ZINC000003995809   -0.5000
12     C12    -1.8020    1.3345    5.9538 C.ar     1 ZINC000003995809   -0.1500
13     C13    -1.1740    0.7931    4.8404 C.ar     1 ZINC000003995809   -0.0500
14     C14     0.3307    0.7309    4.8490 C.3      1 ZINC000003995809   -0.0800
15     C15     0.8557   -0.1889    3.7474 C.3      1 ZINC000003995809   -0.0800
16     H16     1.9317   -0.0540    3.6377 H        1 ZINC000003995809    0.0800
17     C17     0.5519   -1.6456    4.1032 C.3      1 ZINC000003995809   -0.1200
18     C18     1.3323   -2.0372    5.3596 C.3      1 ZINC000003995809   -0.1200
19     C19     1.0286   -3.4939    5.7153 C.3      1 ZINC000003995809   -0.1200
20     C20     1.8090   -3.8854    6.9717 C.3      1 ZINC000003995809   -0.1200
21     C21     1.5052   -5.3422    7.3275 C.3      1 ZINC000003995809   -0.1200
22     C22     2.2857   -5.7337    8.5839 C.3      1 ZINC000003995809   -0.1200
23     C23     1.9819   -7.1905    8.9396 C.3      1 ZINC000003995809   -0.1100
24     C24     2.7623   -7.5820   10.1960 C.3      1 ZINC000003995809   -0.1000
25     C25     2.4586   -9.0387   10.5518 C.3      1 ZINC000003995809   -0.4500
26     S26     3.3838   -9.5030   12.0414 S.o      1 ZINC000003995809    1.2400
27     O27     2.9387   -8.7182   13.1393 O.2      1 ZINC000003995809   -0.8400
28     C28     2.9010  -11.2324   12.2992 C.3      1 ZINC000003995809   -0.4500
29     C29     3.6091  -11.7800   13.5401 C.3      1 ZINC000003995809   -0.1000
30     C30     3.2018  -13.2387   13.7576 C.3      1 ZINC000003995809   -0.1600
31     C31     3.9099  -13.7863   14.9984 C.3      1 ZINC000003995809    0.2600
32     F32     5.2949  -13.7110   14.8164 F        1 ZINC000003995809   -0.1600
33     F33     3.5446  -13.0285   16.1163 F        1 ZINC000003995809   -0.1600
34     C34     3.5027  -15.2450   15.2159 C.3      1 ZINC000003995809    0.4300
35     F35     3.8679  -16.0028   14.0981 F        1 ZINC000003995809   -0.1600
36     F36     4.1501  -15.7457   16.3505 F        1 ZINC000003995809   -0.1600
37     F37     2.1176  -15.3203   15.3980 F        1 ZINC000003995809   -0.1600
38     C38     0.1490    0.1992    2.4476 C.3      1 ZINC000003995809   -0.0700
39     H39     0.2066    1.2783    2.3050 H        1 ZINC000003995809    0.0900
40     C40     0.7533   -0.5218    1.2603 C.3      1 ZINC000003995809   -0.0800
41     H41     0.6234   -1.5992    1.3621 H        1 ZINC000003995809    0.0800
42     C42     2.2143   -0.1848    0.9421 C.3      1 ZINC000003995809   -0.1100
43     C43     2.3355   -0.5472   -0.5633 C.3      1 ZINC000003995809   -0.1600
44     C44     0.8673   -0.4974   -1.1518 C.3      1 ZINC000003995809    0.1100
45     H45     0.5593   -1.4891   -1.4832 H        1 ZINC000003995809    0.0600
46     O46     0.7998    0.4297   -2.2372 O.3      1 ZINC000003995809   -0.5600
47     H47     1.0039    1.9031    0.0027 H        1 ZINC000003995809    0.0500
48     H48    -0.5459    1.8868   -0.8726 H        1 ZINC000003995809    0.0600
49     H49    -0.5289    1.8773    0.9072 H        1 ZINC000003995809    0.0600
50     H50    -1.9544   -0.2340   -0.8469 H        1 ZINC000003995809    0.0700
51     H51    -1.4039   -1.6186    0.1348 H        1 ZINC000003995809    0.0600
52     H52    -2.1477    1.1606    1.1795 H        1 ZINC000003995809    0.0700
53     H53    -3.1062   -0.3218    1.3828 H        1 ZINC000003995809    0.0600
54     H54    -3.9108    0.1299    2.9850 H        1 ZINC000003995809    0.1300
55     H55    -5.0186    1.0996    4.9517 H        1 ZINC000003995809    0.1300
56     H56    -4.0137    1.3266    7.7735 H        1 ZINC000003995809    0.3900
57     H57    -1.2092    1.6721    6.7911 H        1 ZINC000003995809    0.1200
58     H58     0.7301    1.7336    4.6969 H        1 ZINC000003995809    0.0800
59     H59     0.6668    0.3571    5.8161 H        1 ZINC000003995809    0.0800
60     H60    -0.5161   -1.7592    4.2888 H        1 ZINC000003995809    0.0700
61     H61     0.8476   -2.2909    3.2760 H        1 ZINC000003995809    0.0600
62     H62     2.4004   -1.9236    5.1740 H        1 ZINC000003995809    0.0600
63     H63     1.0367   -1.3919    6.1868 H        1 ZINC000003995809    0.0600
64     H64    -0.0395   -3.6075    5.9009 H        1 ZINC000003995809    0.0600
65     H65     1.3243   -4.1392    4.8881 H        1 ZINC000003995809    0.0600
66     H66     2.8771   -3.7719    6.7861 H        1 ZINC000003995809    0.0600
67     H67     1.5133   -3.2402    7.7989 H        1 ZINC000003995809    0.0600
68     H68     0.4372   -5.4557    7.5131 H        1 ZINC000003995809    0.0600
69     H69     1.8009   -5.9875    6.5003 H        1 ZINC000003995809    0.0600
70     H70     3.3537   -5.6202    8.3983 H        1 ZINC000003995809    0.0600
71     H71     1.9900   -5.0884    9.4111 H        1 ZINC000003995809    0.0600
72     H72     0.9138   -7.3040    9.1252 H        1 ZINC000003995809    0.0600
73     H73     2.2776   -7.8357    8.1124 H        1 ZINC000003995809    0.0700
74     H74     3.8304   -7.4684   10.0105 H        1 ZINC000003995809    0.0800
75     H75     2.4666   -6.9367   11.0233 H        1 ZINC000003995809    0.0700
76     H76     1.3905   -9.1523   10.7374 H        1 ZINC000003995809    0.0800
77     H77     2.7542   -9.6840    9.7246 H        1 ZINC000003995809    0.1200
78     H78     1.8219  -11.2911   12.4411 H        1 ZINC000003995809    0.0900
79     H79     3.1856  -11.8228   11.4283 H        1 ZINC000003995809    0.1200
80     H80     4.6882  -11.7213   13.3982 H        1 ZINC000003995809    0.0900
81     H81     3.3245  -11.1896   14.4110 H        1 ZINC000003995809    0.0800
82     H82     2.1227  -13.2974   13.8994 H        1 ZINC000003995809    0.1100
83     H83     3.4864  -13.8291   12.8866 H        1 ZINC000003995809    0.1200
84     H84     2.4086    0.8760    1.1002 H        1 ZINC000003995809    0.0700
85     H85     2.8901   -0.7952    1.5412 H        1 ZINC000003995809    0.0700
86     H86     2.9882    0.1651   -1.0682 H        1 ZINC000003995809    0.0700
87     H87     2.7274   -1.5582   -0.6744 H        1 ZINC000003995809    0.0600
88     H88     1.3713    0.2035   -2.9837 H        1 ZINC000003995809    0.3700
@<TRIPOS>BOND
1     1     2     1
2     1     47    1
3     1     48    1
4     1     49    1
5     2     40    1
6     2     44    1
7     2     3     1
8     3     4     1
9     3     50    1
10    3     51    1
11    4     5     1
12    4     52    1
13    4     53    1
14    5     6     1
15    5     38    1
16    5     7     1
17    7     13    ar
18    7     8     ar
19    8     9     ar
20    8     54    1
21    9     10    ar
22    9     55    1
23    10    11    1
24    10    12    ar
25    11    56    1
26    12    13    ar
27    12    57    1
28    13    14    1
29    14    15    1
30    14    58    1
31    14    59    1
32    15    16    1
33    15    17    1
34    15    38    1
35    17    18    1
36    17    60    1
37    17    61    1
38    18    19    1
39    18    62    1
40    18    63    1
41    19    20    1
42    19    64    1
43    19    65    1
44    20    21    1
45    20    66    1
46    20    67    1
47    21    22    1
48    21    68    1
49    21    69    1
50    22    23    1
51    22    70    1
52    22    71    1
53    23    24    1
54    23    72    1
55    23    73    1
56    24    25    1
57    24    74    1
58    24    75    1
59    25    26    1
60    25    76    1
61    25    77    1
62    26    27    2
63    26    28    1
64    28    29    1
65    28    78    1
66    28    79    1
67    29    30    1
68    29    80    1
69    29    81    1
70    30    31    1
71    30    82    1
72    30    83    1
73    31    32    1
74    31    33    1
75    31    34    1
76    34    35    1
77    34    36    1
78    34    37    1
79    38    39    1
80    38    40    1
81    40    41    1
82    40    42    1
83    42    43    1
84    42    84    1
85    42    85    1
86    43    44    1
87    43    86    1
88    43    87    1
89    44    45    1
90    44    46    1
91    46    88    1
@<TRIPOS>SUBSTRUCTURE
1   ZINC000003995809 1     RESIDUE    1   A     ZIN   1
