@<TRIPOS>MOLECULE
ZINC000001530741
42   44    0    0    0
SMALL
USER_CHARGES
NO_NAME
@<TRIPOS>ATOM
1 C1       -0.0178     1.4648     0.0101 C.3    1 <0>      -0.0500
2 N2        0.0021    -0.0041     0.0020 N.4    1 <0>      -0.5100
3 H3        0.4901    -0.3383     0.8195 H      1 <0>       0.4300
4 H4       -0.9445    -0.3533     0.0092 H      1 <0>       0.4300
5 C5        0.6897    -0.4778    -1.2066 C.3    1 <0>      -0.0100
6 C6        0.7104    -2.0077    -1.2150 C.3    1 <0>      -0.1200
7 C7        1.4158    -2.4937    -2.4549 C.2    1 <0>      -0.1700
8 C8        2.4551    -3.3300    -2.3491 C.2    1 <0>       0.0100
9 C9        2.9417    -3.8089    -1.0251 C.ar   1 <0>      -0.0600
10 C10       2.0242    -4.4337    -0.1804 C.ar   1 <0>      -0.1100
11 C11       2.4219    -4.9178     1.0474 C.ar   1 <0>      -0.1200
12 C12       3.7441    -4.7792     1.4298 C.ar   1 <0>      -0.1100
13 C13       4.6481    -4.1552     0.6011 C.ar   1 <0>      -0.1300
14 C14       4.2690    -3.6427    -0.6415 C.ar   1 <0>      -0.0500
15 C15       5.3732    -2.9361    -1.3917 C.3    1 <0>      -0.0800
16 C16       4.9274    -2.3345    -2.7077 C.3    1 <0>      -0.0800
17 C17       4.4758    -3.3806    -3.6909 C.ar   1 <0>      -0.0700
18 C18       5.2820    -3.8729    -4.6894 C.ar   1 <0>      -0.1100
19 C19       4.7554    -4.8053    -5.5733 C.ar   1 <0>      -0.1100
20 C20       3.4436    -5.2280    -5.4557 C.ar   1 <0>      -0.1200
21 C21       2.6382    -4.7406    -4.4384 C.ar   1 <0>      -0.1000
22 C22       3.1787    -3.8330    -3.5490 C.ar   1 <0>      -0.0700
23 H23       1.0047     1.8421     0.0024 H      1 <0>       0.1200
24 H24      -0.5450     1.8259    -0.8730 H      1 <0>       0.1200
25 H25      -0.5280     1.8163     0.9069 H      1 <0>       0.1300
26 H26       0.1625    -0.1167    -2.0897 H      1 <0>       0.1300
27 H27       1.7123    -0.1005    -1.2143 H      1 <0>       0.1300
28 H28       1.2376    -2.3687    -0.3320 H      1 <0>       0.1000
29 H29      -0.3122    -2.3849    -1.2073 H      1 <0>       0.1000
30 H30       1.0825    -2.1670    -3.4289 H      1 <0>       0.1300
31 H31       0.9950    -4.5386    -0.4904 H      1 <0>       0.1200
32 H32       1.7106    -5.3993     1.7021 H      1 <0>       0.1300
33 H33       4.0689    -5.1631     2.3856 H      1 <0>       0.1300
34 H34       5.6756    -4.0589     0.9196 H      1 <0>       0.1200
35 H35       5.7686    -2.1400    -0.7610 H      1 <0>       0.0900
36 H36       6.1729    -3.6502    -1.5884 H      1 <0>       0.0800
37 H37       4.1031    -1.6465    -2.5203 H      1 <0>       0.0700
38 H38       5.7583    -1.7778    -3.1410 H      1 <0>       0.0800
39 H39       6.3051    -3.5406    -4.7848 H      1 <0>       0.1300
40 H40       5.3766    -5.2045    -6.3614 H      1 <0>       0.1300
41 H41       3.0444    -5.9418    -6.1611 H      1 <0>       0.1300
42 H42       1.6123    -5.0640    -4.3416 H      1 <0>       0.1300
@<TRIPOS>BOND
1    1    2 1
2    1   23 1
3    1   24 1
4    1   25 1
5    2    3 1
6    2    4 1
7    2    5 1
8    5    6 1
9    5   26 1
10    5   27 1
11    6    7 1
12    6   28 1
13    6   29 1
14    7    8 2
15    7   30 1
16    8   22 1
17    8    9 1
18    9   14 ar
19    9   10 ar
20   10   11 ar
21   10   31 1
22   11   12 ar
23   11   32 1
24   12   13 ar
25   12   33 1
26   13   14 ar
27   13   34 1
28   14   15 1
29   15   16 1
30   15   35 1
31   15   36 1
32   16   17 1
33   16   37 1
34   16   38 1
35   17   22 ar
36   17   18 ar
37   18   19 ar
38   18   39 1
39   19   20 ar
40   19   40 1
41   20   21 ar
42   20   41 1
43   21   22 ar
44   21   42 1
