@<TRIPOS>MOLECULE
ZINC000013831130
51    53    1     0     0
SMALL
USER_CHARGES
@<TRIPOS>ATOM
1      C1      6.5160   -4.1973    5.6206 C.3      1 ZINC000013831130   -0.0600
2      C2      5.4875   -4.8049    4.7017 C.2      1 ZINC000013831130    0.1700
3      N3      5.6821   -5.8013    3.8763 N.2      1 ZINC000013831130   -0.2900
4      N4      4.5878   -6.0584    3.2498 N.2      1 ZINC000013831130   -0.2400
5      C5      3.6534   -5.2305    3.6565 C.2      1 ZINC000013831130    0.1300
6      C6      2.2559   -5.1908    3.1872 C.2      1 ZINC000013831130    0.6100
7      O7      1.4837   -4.3711    3.6458 O.2      1 ZINC000013831130   -0.5100
8      N8      1.8347   -6.0631    2.2502 N.am     1 ZINC000013831130   -0.6800
9      C9      0.4464   -6.0237    1.7840 C.3      1 ZINC000013831130    0.2700
10     C10    -0.4902   -6.3790    2.9405 C.3      1 ZINC000013831130   -0.1300
11     C11     0.1188   -4.6182    1.2758 C.3      1 ZINC000013831130   -0.1700
12     C12     0.2635   -7.0174    0.6660 C.2      1 ZINC000013831130    0.1000
13     N13    -0.6871   -7.9033    0.7560 N.2      1 ZINC000013831130   -0.3600
14     C14    -0.8945   -8.8136   -0.2131 C.2      1 ZINC000013831130   -0.1000
15     C15    -1.9836   -9.8071   -0.0813 C.2      1 ZINC000013831130    0.4500
16     O16    -2.7745   -9.8021    1.0161 O.3      1 ZINC000013831130   -0.8000
17     N17    -2.1801  -10.6842   -1.0197 N.2      1 ZINC000013831130   -0.6600
18     C18    -3.2581  -11.6676   -0.8893 C.3      1 ZINC000013831130    0.1000
19     C19    -4.2877  -11.4299   -1.9637 C.ar     1 ZINC000013831130   -0.0300
20     C20    -5.3465  -10.5728   -1.7283 C.ar     1 ZINC000013831130   -0.0900
21     C21    -6.2913  -10.3540   -2.7129 C.ar     1 ZINC000013831130   -0.1600
22     C22    -6.1768  -10.9932   -3.9357 C.ar     1 ZINC000013831130    0.0500
23     F23    -7.0996  -10.7798   -4.8991 F        1 ZINC000013831130   -0.1600
24     C24    -5.1157  -11.8511   -4.1706 C.ar     1 ZINC000013831130   -0.1600
25     C25    -4.1695  -12.0646   -3.1861 C.ar     1 ZINC000013831130   -0.0900
26     C26    -0.0821   -8.8143   -1.3351 C.2      1 ZINC000013831130    0.2200
27     O27    -0.2682   -9.7205   -2.3289 O.3      1 ZINC000013831130   -0.5800
28     C28     0.9499   -7.8427   -1.4194 C.2      1 ZINC000013831130    0.4700
29     O29     1.6905   -7.8027   -2.3872 O.2      1 ZINC000013831130   -0.5700
30     N30     1.0893   -6.9604   -0.4072 N.am     1 ZINC000013831130   -0.5100
31     C31     2.1438   -5.9451   -0.4637 C.3      1 ZINC000013831130    0.0500
32     O32     4.2079   -4.4261    4.5870 O.3      1 ZINC000013831130   -0.1900
33     H33     6.5005   -4.7179    6.5781 H        1 ZINC000013831130    0.1000
34     H34     7.5049   -4.2914    5.1718 H        1 ZINC000013831130    0.1100
35     H35     6.2865   -3.1432    5.7763 H        1 ZINC000013831130    0.0900
36     H36     2.4507   -6.7170    1.8844 H        1 ZINC000013831130    0.4100
37     H37    -0.4252   -5.6099    3.7101 H        1 ZINC000013831130    0.0600
38     H38    -1.5146   -6.4396    2.5730 H        1 ZINC000013831130    0.0900
39     H39    -0.1980   -7.3407    3.3623 H        1 ZINC000013831130    0.0600
40     H40     0.7500   -4.3856    0.4182 H        1 ZINC000013831130    0.0600
41     H41    -0.9289   -4.5745    0.9783 H        1 ZINC000013831130    0.0700
42     H42     0.3018   -3.8932    2.0690 H        1 ZINC000013831130    0.0800
43     H43    -2.8483  -12.6721   -0.9946 H        1 ZINC000013831130    0.0300
44     H44    -3.7254  -11.5667    0.0903 H        1 ZINC000013831130    0.0400
45     H45    -5.4356  -10.0742   -0.7744 H        1 ZINC000013831130    0.1300
46     H46    -7.1187   -9.6849   -2.5284 H        1 ZINC000013831130    0.1200
47     H47    -5.0255  -12.3505   -5.1239 H        1 ZINC000013831130    0.1200
48     H48    -3.3415  -12.7335   -3.3692 H        1 ZINC000013831130    0.1300
49     H49     2.7738   -6.1237   -1.3351 H        1 ZINC000013831130    0.0800
50     H50     1.6922   -4.9559   -0.5385 H        1 ZINC000013831130    0.0600
51     H51     2.7502   -6.0003    0.4404 H        1 ZINC000013831130    0.0600
@<TRIPOS>BOND
1     1     2     1
2     1     33    1
3     1     34    1
4     1     35    1
5     2     32    1
6     2     3     2
7     3     4     1
8     4     5     2
9     5     6     1
10    5     32    1
11    6     7     2
12    6     8     am
13    8     9     1
14    8     36    1
15    9     10    1
16    9     11    1
17    9     12    1
18    10    37    1
19    10    38    1
20    10    39    1
21    11    40    1
22    11    41    1
23    11    42    1
24    12    30    1
25    12    13    2
26    13    14    1
27    14    15    1
28    14    26    2
29    15    16    1
30    15    17    2
31    17    18    1
32    18    19    1
33    18    43    1
34    18    44    1
35    19    25    ar
36    19    20    ar
37    20    21    ar
38    20    45    1
39    21    22    ar
40    21    46    1
41    22    23    1
42    22    24    ar
43    24    25    ar
44    24    47    1
45    25    48    1
46    26    27    1
47    26    28    1
48    28    29    2
49    28    30    am
50    30    31    1
51    31    49    1
52    31    50    1
53    31    51    1
@<TRIPOS>SUBSTRUCTURE
1   ZINC000013831130 1     RESIDUE    1   A     ZIN   1
