@<TRIPOS>MOLECULE
ZINC000012859773
22   21    0    0    0
SMALL
USER_CHARGES
NO_NAME
@<TRIPOS>ATOM
1 C1       -3.4890    -0.5102    -1.6399 C.3    1 <0>       0.0400
2 N2       -2.3670    -1.3742    -1.2646 N.pl3  1 <0>      -0.5300
3 C3       -2.2679    -1.8940     0.1015 C.3    1 <0>       0.0400
4 C4       -1.4074    -1.6971    -2.1941 C.cat  1 <0>       0.7200
5 N5       -1.4955    -1.2351    -3.4084 N.pl3  1 <0>      -0.7600
6 H6       -0.8989    -1.5662    -4.0978 H      1 <0>       0.4400
7 H7       -2.1578    -0.5598    -3.6235 H      1 <0>       0.4600
8 N8       -0.3502    -2.5112    -1.8404 N.pl3  1 <0>      -0.6400
9 C9        0.7705    -2.5639    -2.6320 C.cat  1 <0>       0.7800
10 N10       0.9045    -1.7202    -3.6529 N.pl3  1 <0>      -0.8300
11 N11       1.7230    -3.4585    -2.3785 N.pl3  1 <0>      -0.7100
12 H12       2.5147    -3.4957    -2.9377 H      1 <0>       0.4700
13 H13       1.6253    -4.0733    -1.6346 H      1 <0>       0.4600
14 H14      -3.2226     0.5309    -1.4579 H      1 <0>       0.1100
15 H15      -3.7157    -0.6478    -2.6972 H      1 <0>       0.1000
16 H16      -4.3636    -0.7710    -1.0440 H      1 <0>       0.1300
17 H17      -2.7880    -2.8498     0.1652 H      1 <0>       0.1100
18 H18      -1.2187    -2.0332     0.3620 H      1 <0>       0.0900
19 H19      -2.7233    -1.1857     0.7937 H      1 <0>       0.1300
20 H20      -0.3990    -3.0460    -1.0326 H      1 <0>       0.4700
21 H21       0.6937    -0.7806    -3.5364 H      1 <0>       0.4500
22 H22       1.2130    -2.0451    -4.5132 H      1 <0>       0.4600
@<TRIPOS>BOND
1    1    2 1
2    1   14 1
3    1   15 1
4    1   16 1
5    2    3 1
6    2    4 ar
7    3   17 1
8    3   18 1
9    3   19 1
10    4    5 ar
11    4    8 ar
12    5    6 1
13    5    7 1
14    8    9 ar
15    8   20 1
16    9   10 ar
17    9   11 ar
18   10   21 1
19   10   22 1
20   11   12 1
21   11   13 1
