@<TRIPOS>MOLECULE
ZINC000001571009
72    73    1     0     0
SMALL
USER_CHARGES
@<TRIPOS>ATOM
1      C1     -0.6680    1.1367   -1.8442 C.3      1 ZINC000001571009   -0.1600
2      C2     -0.7495   -0.1831   -1.0746 C.3      1 ZINC000001571009   -0.0700
3      C3     -0.2575    0.0309    0.3583 C.3      1 ZINC000001571009   -0.1600
4      C4     -2.1998   -0.6696   -1.0485 C.3      1 ZINC000001571009   -0.1400
5      C5      0.1274   -1.2304   -1.7639 C.3      1 ZINC000001571009   -0.1100
6      C6      1.5960   -0.8138   -1.6605 C.3      1 ZINC000001571009   -0.0200
7      C7      1.7058    0.7061   -1.7969 C.3      1 ZINC000001571009   -0.1700
8      C8      2.1543   -1.2458   -0.3031 C.3      1 ZINC000001571009   -0.1500
9      C9      2.3844   -1.4752   -2.7615 C.ar     1 ZINC000001571009   -0.0900
10     C10     1.7463   -2.3054   -3.6644 C.ar     1 ZINC000001571009   -0.0800
11     C11     2.4667   -2.9129   -4.6745 C.ar     1 ZINC000001571009   -0.1500
12     C12     3.8315   -2.6889   -4.7828 C.ar     1 ZINC000001571009    0.1200
13     O13     4.5424   -3.2849   -5.7759 O.3      1 ZINC000001571009   -0.3100
14     C14     5.9436   -3.0088   -5.8264 C.3      1 ZINC000001571009    0.0600
15     C15     6.5698   -3.7624   -7.0016 C.3      1 ZINC000001571009    0.0600
16     O16     6.0403   -3.2562   -8.2285 O.3      1 ZINC000001571009   -0.3800
17     C17     6.5627   -3.8957   -9.3947 C.3      1 ZINC000001571009    0.0300
18     C18     5.9293   -3.2772  -10.6426 C.3      1 ZINC000001571009    0.0000
19     N19     6.4088   -1.8980  -10.8028 N.4      1 ZINC000001571009   -0.2600
20     C20     6.1260   -1.1360   -9.5791 C.3      1 ZINC000001571009   -0.0500
21     C21     7.8570   -1.9086  -11.0493 C.3      1 ZINC000001571009   -0.0600
22     C22     5.7231   -1.2701  -11.9401 C.3      1 ZINC000001571009    0.0400
23     C23     6.2151    0.1448  -12.1044 C.ar     1 ZINC000001571009   -0.1500
24     C24     5.5803    1.1786  -11.4417 C.ar     1 ZINC000001571009   -0.1000
25     C25     6.0316    2.4765  -11.5924 C.ar     1 ZINC000001571009   -0.1100
26     C26     7.1179    2.7405  -12.4056 C.ar     1 ZINC000001571009   -0.0900
27     C27     7.7531    1.7066  -13.0676 C.ar     1 ZINC000001571009   -0.1100
28     C28     7.3045    0.4082  -12.9135 C.ar     1 ZINC000001571009   -0.1000
29     C29     4.4694   -1.8550   -3.8759 C.ar     1 ZINC000001571009   -0.2100
30     C30     3.7436   -1.2462   -2.8704 C.ar     1 ZINC000001571009   -0.0800
31     H31     0.1462    1.7409   -1.4442 H        1 ZINC000001571009    0.0800
32     H32    -0.4840    0.9316   -2.8988 H        1 ZINC000001571009    0.0600
33     H33    -1.6082    1.6779   -1.7380 H        1 ZINC000001571009    0.0500
34     H34    -1.0921    0.3423    0.9863 H        1 ZINC000001571009    0.0500
35     H35     0.1586   -0.9005    0.7425 H        1 ZINC000001571009    0.0600
36     H36     0.5116    0.8032    0.3668 H        1 ZINC000001571009    0.0600
37     H37    -2.5504   -0.8220   -2.0693 H        1 ZINC000001571009    0.0500
38     H38    -2.2579   -1.6098   -0.5002 H        1 ZINC000001571009    0.0500
39     H39    -2.8246    0.0765   -0.5574 H        1 ZINC000001571009    0.0600
40     H40    -0.0112   -2.1966   -1.2787 H        1 ZINC000001571009    0.0700
41     H41    -0.1555   -1.3071   -2.8137 H        1 ZINC000001571009    0.0700
42     H42     1.3984    1.1778   -0.8635 H        1 ZINC000001571009    0.0800
43     H43     2.7380    0.9774   -2.0183 H        1 ZINC000001571009    0.0400
44     H44     1.0592    1.0460   -2.6059 H        1 ZINC000001571009    0.0800
45     H45     1.7175   -2.2030   -0.0185 H        1 ZINC000001571009    0.0600
46     H46     3.2375   -1.3466   -0.3712 H        1 ZINC000001571009    0.0500
47     H47     1.9057   -0.4955    0.4474 H        1 ZINC000001571009    0.0700
48     H48     0.6837   -2.4795   -3.5797 H        1 ZINC000001571009    0.1400
49     H49     1.9679   -3.5618   -5.3791 H        1 ZINC000001571009    0.1300
50     H50     6.0984   -1.9379   -5.9576 H        1 ZINC000001571009    0.0700
51     H51     6.4114   -3.3324   -4.8966 H        1 ZINC000001571009    0.0800
52     H52     7.6509   -3.6234   -6.9876 H        1 ZINC000001571009    0.0800
53     H53     6.3389   -4.8242   -6.9168 H        1 ZINC000001571009    0.0700
54     H54     7.6436   -3.7596   -9.4304 H        1 ZINC000001571009    0.0700
55     H55     6.3316   -4.9604   -9.3596 H        1 ZINC000001571009    0.1000
56     H56     6.2070   -3.8626  -11.5192 H        1 ZINC000001571009    0.1400
57     H57     4.8445   -3.2747  -10.5361 H        1 ZINC000001571009    0.1400
58     H58     6.7392   -1.5183   -8.7631 H        1 ZINC000001571009    0.1300
59     H59     6.3568   -0.0837   -9.7449 H        1 ZINC000001571009    0.1100
60     H60     5.0721   -1.2406   -9.3214 H        1 ZINC000001571009    0.1200
61     H61     8.0668   -2.4740  -11.9572 H        1 ZINC000001571009    0.1200
62     H62     8.2128   -0.8852  -11.1681 H        1 ZINC000001571009    0.1200
63     H63     8.3658   -2.3745  -10.2054 H        1 ZINC000001571009    0.1200
64     H64     5.9330   -1.8355  -12.8481 H        1 ZINC000001571009    0.1300
65     H65     4.6486   -1.2623  -11.7572 H        1 ZINC000001571009    0.1300
66     H66     4.7317    0.9723  -10.8064 H        1 ZINC000001571009    0.1300
67     H67     5.5353    3.2843  -11.0752 H        1 ZINC000001571009    0.1400
68     H68     7.4700    3.7546  -12.5239 H        1 ZINC000001571009    0.1400
69     H69     8.6016    1.9129  -13.7032 H        1 ZINC000001571009    0.1400
70     H70     7.8009   -0.3996  -13.4307 H        1 ZINC000001571009    0.1300
71     H71     5.5318   -1.6794   -3.9579 H        1 ZINC000001571009    0.1200
72     H72     4.2396   -0.5967   -2.1644 H        1 ZINC000001571009    0.1300
@<TRIPOS>BOND
1     1     2     1
2     1     31    1
3     1     32    1
4     1     33    1
5     2     3     1
6     2     4     1
7     2     5     1
8     3     34    1
9     3     35    1
10    3     36    1
11    4     37    1
12    4     38    1
13    4     39    1
14    5     6     1
15    5     40    1
16    5     41    1
17    6     7     1
18    6     8     1
19    6     9     1
20    7     42    1
21    7     43    1
22    7     44    1
23    8     45    1
24    8     46    1
25    8     47    1
26    9     30    ar
27    9     10    ar
28    10    11    ar
29    10    48    1
30    11    12    ar
31    11    49    1
32    12    13    1
33    12    29    ar
34    13    14    1
35    14    15    1
36    14    50    1
37    14    51    1
38    15    16    1
39    15    52    1
40    15    53    1
41    16    17    1
42    17    18    1
43    17    54    1
44    17    55    1
45    18    19    1
46    18    56    1
47    18    57    1
48    19    20    1
49    19    21    1
50    19    22    1
51    20    58    1
52    20    59    1
53    20    60    1
54    21    61    1
55    21    62    1
56    21    63    1
57    22    23    1
58    22    64    1
59    22    65    1
60    23    28    ar
61    23    24    ar
62    24    25    ar
63    24    66    1
64    25    26    ar
65    25    67    1
66    26    27    ar
67    26    68    1
68    27    28    ar
69    27    69    1
70    28    70    1
71    29    30    ar
72    29    71    1
73    30    72    1
@<TRIPOS>SUBSTRUCTURE
1   ZINC000001571009 1     RESIDUE    1   A     ZIN   1
