@<TRIPOS>MOLECULE
ZINC000000002009
26    26    1     0     0
SMALL
USER_CHARGES
@<TRIPOS>ATOM
1      C1     -2.4306   -0.1594    0.8387 C.3      1 ZINC000000002009    0.0900
2      N2     -1.1861   -0.8032    0.4107 N.am     1 ZINC000000002009   -0.5800
3      C3     -0.0074   -0.7694    1.2800 C.3      1 ZINC000000002009    0.0700
4      C4     -1.1257   -1.4264   -0.7828 C.2      1 ZINC000000002009    0.6400
5      O5     -2.1034   -1.4545   -1.5038 O.2      1 ZINC000000002009   -0.5500
6      O6      0.0183   -2.0182   -1.1762 O.3      1 ZINC000000002009   -0.2900
7      C7     -0.0173   -2.7167   -2.3420 C.ar     1 ZINC000000002009    0.1200
8      C8      0.0061   -2.0520   -3.5635 C.ar     1 ZINC000000002009   -0.0100
9      C9     -0.0315   -2.8071   -4.7250 C.ar     1 ZINC000000002009   -0.1000
10     C10    -0.0907   -4.1848   -4.6325 C.ar     1 ZINC000000002009    0.1200
11     N11    -0.1119   -4.7842   -3.4580 N.ar     1 ZINC000000002009   -0.3200
12     C12    -0.1754   -6.2468   -3.4052 C.3      1 ZINC000000002009    0.0100
13     C13    -0.0719   -4.1030   -2.3302 C.ar     1 ZINC000000002009    0.1200
14     H14    -2.4378    0.8773    0.5020 H        1 ZINC000000002009    0.0700
15     H15    -3.2803   -0.6878    0.4063 H        1 ZINC000000002009    0.0900
16     H16    -2.4995   -0.1888    1.9261 H        1 ZINC000000002009    0.0900
17     H17    -0.2456   -0.2259    2.1943 H        1 ZINC000000002009    0.0900
18     H18     0.2892   -1.7881    1.5296 H        1 ZINC000000002009    0.0700
19     H19     0.8113   -0.2690    0.7627 H        1 ZINC000000002009    0.0700
20     H20     0.0521   -0.9738   -3.6059 H        1 ZINC000000002009    0.1800
21     H21    -0.0152   -2.3246   -5.6911 H        1 ZINC000000002009    0.2000
22     H22    -0.1202   -4.7785   -5.5342 H        1 ZINC000000002009    0.2200
23     H23     0.8356   -6.6543   -3.3964 H        1 ZINC000000002009    0.1300
24     H24    -0.6994   -6.5554   -2.5007 H        1 ZINC000000002009    0.1300
25     H25    -0.7095   -6.6191   -4.2795 H        1 ZINC000000002009    0.1300
26     H26    -0.0911   -4.6290   -1.3872 H        1 ZINC000000002009    0.2100
@<TRIPOS>BOND
1     1     2     1
2     1     14    1
3     1     15    1
4     1     16    1
5     2     3     1
6     2     4     am
7     3     17    1
8     3     18    1
9     3     19    1
10    4     5     2
11    4     6     1
12    6     7     1
13    7     13    ar
14    7     8     ar
15    8     9     ar
16    8     20    1
17    9     10    ar
18    9     21    1
19    10    11    ar
20    10    22    1
21    11    12    1
22    11    13    ar
23    12    23    1
24    12    24    1
25    12    25    1
26    13    26    1
@<TRIPOS>SUBSTRUCTURE
1   ZINC000000002009 1     RESIDUE    1   A     ZIN   1
