@<TRIPOS>MOLECULE
ZINC000000538312
57    61    1     0     0
SMALL
USER_CHARGES
@<TRIPOS>ATOM
1      C1     -0.0184    1.5028    0.0103 C.3      1 ZINC000000538312   -0.1100
2      C2      0.0021   -0.0041    0.0020 C.2      1 ZINC000000538312    0.1900
3      C3     -1.1658   -0.7052    0.0038 C.2      1 ZINC000000538312   -0.2700
4      C4     -2.4949    0.0052    0.0049 C.3      1 ZINC000000538312   -0.0500
5      C5     -3.0056    0.1339   -1.4315 C.3      1 ZINC000000538312    0.0700
6      N6     -4.3012    0.8263   -1.4304 N.3      1 ZINC000000538312   -0.5400
7      C7     -5.1863    0.2851   -0.3911 C.3      1 ZINC000000538312    0.0500
8      C8     -6.4656    1.1221   -0.3220 C.3      1 ZINC000000538312   -0.1100
9      C9     -7.1658    1.0885   -1.6833 C.3      1 ZINC000000538312   -0.0200
10     C10    -8.3948    1.9595   -1.6391 C.2      1 ZINC000000538312    0.1500
11     N11    -8.4248    3.2335   -1.3946 N.2      1 ZINC000000538312   -0.2700
12     O12    -9.7591    3.6976   -1.4407 O.3      1 ZINC000000538312   -0.0900
13     C13   -10.5805    2.6667   -1.7249 C.ar     1 ZINC000000538312    0.1100
14     C14   -11.9555    2.5580   -1.8865 C.ar     1 ZINC000000538312   -0.1700
15     C15   -12.5164    1.3313   -2.1821 C.ar     1 ZINC000000538312    0.1600
16     F16   -13.8541    1.2266   -2.3391 F        1 ZINC000000538312   -0.1200
17     C17   -11.7159    0.2034   -2.3200 C.ar     1 ZINC000000538312   -0.1800
18     C18   -10.3617    0.2914   -2.1641 C.ar     1 ZINC000000538312   -0.0100
19     C19    -9.7749    1.5246   -1.8706 C.ar     1 ZINC000000538312   -0.2100
20     C20    -6.2059    1.6120   -2.7553 C.3      1 ZINC000000538312   -0.1100
21     C21    -4.9341    0.7607   -2.7538 C.3      1 ZINC000000538312    0.0600
22     C22    -1.0976   -2.1102    0.0040 C.2      1 ZINC000000538312    0.5200
23     O23    -2.1194   -2.7763   -0.0079 O.2      1 ZINC000000538312   -0.5400
24     N24     0.1170   -2.7180    0.0170 N.am     1 ZINC000000538312   -0.5100
25     C25     0.1226   -4.1806    0.0683 C.3      1 ZINC000000538312    0.0900
26     C26     1.4685   -4.7424   -0.3813 C.3      1 ZINC000000538312   -0.1400
27     C27     2.5734   -4.0350    0.4136 C.3      1 ZINC000000538312   -0.1300
28     C28     2.6156   -2.5746   -0.0316 C.3      1 ZINC000000538312   -0.0700
29     C29     1.2325   -1.9722   -0.0057 C.2      1 ZINC000000538312    0.4000
30     N30     1.1610   -0.6576   -0.0126 N.2      1 ZINC000000538312   -0.5500
31     H31     1.0042    1.8801    0.0026 H        1 ZINC000000538312    0.0800
32     H32    -0.5455    1.8639   -0.8728 H        1 ZINC000000538312    0.0900
33     H33    -0.5286    1.8543    0.9071 H        1 ZINC000000538312    0.0900
34     H34    -3.2115   -0.5657    0.5955 H        1 ZINC000000538312    0.0800
35     H35    -2.3758    0.9981    0.4386 H        1 ZINC000000538312    0.0900
36     H36    -2.2891    0.7048   -2.0221 H        1 ZINC000000538312    0.0700
37     H37    -3.1247   -0.8590   -1.8652 H        1 ZINC000000538312    0.0400
38     H38    -5.4402   -0.7472   -0.6319 H        1 ZINC000000538312    0.0400
39     H39    -4.6779    0.3186    0.5725 H        1 ZINC000000538312    0.0900
40     H40    -7.1290    0.7107    0.4387 H        1 ZINC000000538312    0.0700
41     H41    -6.2136    2.1516   -0.0677 H        1 ZINC000000538312    0.0800
42     H42    -7.4537    0.0641   -1.9197 H        1 ZINC000000538312    0.1000
43     H43   -12.5840    3.4299   -1.7810 H        1 ZINC000000538312    0.1500
44     H44   -12.1680   -0.7497   -2.5517 H        1 ZINC000000538312    0.1500
45     H45    -9.7459   -0.5892   -2.2719 H        1 ZINC000000538312    0.1500
46     H46    -6.6838    1.5505   -3.7330 H        1 ZINC000000538312    0.0700
47     H47    -5.9499    2.6492   -2.5393 H        1 ZINC000000538312    0.0800
48     H48    -4.2426    1.1397   -3.5063 H        1 ZINC000000538312    0.0800
49     H49    -5.1893   -0.2738   -2.9835 H        1 ZINC000000538312    0.0400
50     H50    -0.0759   -4.5031    1.0904 H        1 ZINC000000538312    0.0900
51     H51    -0.6611   -4.5641   -0.5850 H        1 ZINC000000538312    0.1000
52     H52     1.5034   -5.8141   -0.1855 H        1 ZINC000000538312    0.1000
53     H53     1.6064   -4.5581   -1.4467 H        1 ZINC000000538312    0.0800
54     H54     2.3523   -4.0888    1.4796 H        1 ZINC000000538312    0.0800
55     H55     3.5337   -4.5094    0.2116 H        1 ZINC000000538312    0.0900
56     H56     3.2649   -2.0127    0.6398 H        1 ZINC000000538312    0.1100
57     H57     3.0130   -2.5191   -1.0451 H        1 ZINC000000538312    0.1100
@<TRIPOS>BOND
1     1     2     1
2     1     31    1
3     1     32    1
4     1     33    1
5     2     30    1
6     2     3     2
7     3     4     1
8     3     22    1
9     4     5     1
10    4     34    1
11    4     35    1
12    5     6     1
13    5     36    1
14    5     37    1
15    6     21    1
16    6     7     1
17    7     8     1
18    7     38    1
19    7     39    1
20    8     9     1
21    8     40    1
22    8     41    1
23    9     10    1
24    9     20    1
25    9     42    1
26    10    19    1
27    10    11    2
28    11    12    1
29    12    13    1
30    13    19    ar
31    13    14    ar
32    14    15    ar
33    14    43    1
34    15    16    1
35    15    17    ar
36    17    18    ar
37    17    44    1
38    18    19    ar
39    18    45    1
40    20    21    1
41    20    46    1
42    20    47    1
43    21    48    1
44    21    49    1
45    22    23    2
46    22    24    am
47    24    29    1
48    24    25    1
49    25    26    1
50    25    50    1
51    25    51    1
52    26    27    1
53    26    52    1
54    26    53    1
55    27    28    1
56    27    54    1
57    27    55    1
58    28    29    1
59    28    56    1
60    28    57    1
61    29    30    2
@<TRIPOS>SUBSTRUCTURE
1   ZINC000000538312 1     RESIDUE    1   A     ZIN   1
