@<TRIPOS>MOLECULE
ZINC000242437511
81    83    1     0     0
SMALL
USER_CHARGES
@<TRIPOS>ATOM
1      C1     -1.5576   -8.3364    2.7604 C.3      1 ZINC000242437511   -0.0600
2      N2     -1.6070   -7.8087    1.3903 N.4      1 ZINC000242437511   -0.5100
3      H3     -1.9699   -8.5170    0.7700 H        1 ZINC000242437511    0.4300
4      H4     -2.2076   -6.9983    1.3635 H        1 ZINC000242437511    0.4200
5      C5     -0.2538   -7.4297    0.9624 C.3      1 ZINC000242437511    0.0300
6      H6      0.4154   -8.2826    1.0758 H        1 ZINC000242437511    0.1700
7      C7      0.2477   -6.2698    1.8250 C.3      1 ZINC000242437511   -0.1900
8      C8     -0.2852   -6.9975   -0.5049 C.3      1 ZINC000242437511    0.0700
9      H9     -0.6920   -7.8054   -1.1132 H        1 ZINC000242437511    0.1100
10     C10     1.1361   -6.6728   -0.9720 C.3      1 ZINC000242437511   -0.1700
11     C11     1.0891   -6.1837   -2.4229 C.3      1 ZINC000242437511   -0.1500
12     C12     0.1568   -4.9715   -2.5115 C.3      1 ZINC000242437511    0.0100
13     H13     0.0742   -4.6508   -3.5500 H        1 ZINC000242437511    0.1700
14     N14     0.7003   -3.8738   -1.7005 N.4      1 ZINC000242437511   -0.6400
15     H15     1.5121   -3.4873   -2.1584 H        1 ZINC000242437511    0.4500
16     H16    -0.0001   -3.1553   -1.5946 H        1 ZINC000242437511    0.4400
17     H17     0.9621   -4.2249   -0.7916 H        1 ZINC000242437511    0.4400
18     C18    -1.2266   -5.3620   -1.9850 C.3      1 ZINC000242437511    0.2200
19     H19    -1.6458   -6.1484   -2.6127 H        1 ZINC000242437511    0.0900
20     O20    -2.0865   -4.2210   -2.0126 O.3      1 ZINC000242437511   -0.3300
21     C21    -3.2940   -4.3851   -1.2662 C.3      1 ZINC000242437511    0.0800
22     H22    -3.1028   -5.0191   -0.4005 H        1 ZINC000242437511    0.1300
23     C23    -4.3564   -5.0387   -2.1522 C.3      1 ZINC000242437511    0.0100
24     H24    -5.2775   -5.1638   -1.5829 H        1 ZINC000242437511    0.1800
25     N25    -3.8773   -6.3520   -2.6034 N.4      1 ZINC000242437511   -0.6400
26     H26    -3.4621   -6.8437   -1.8263 H        1 ZINC000242437511    0.4400
27     H27    -4.6529   -6.8872   -2.9642 H        1 ZINC000242437511    0.4600
28     H28    -3.1880   -6.2273   -3.3295 H        1 ZINC000242437511    0.4300
29     C29    -4.6249   -4.1487   -3.3675 C.3      1 ZINC000242437511   -0.1700
30     C30    -5.1239   -2.7808   -2.8976 C.3      1 ZINC000242437511    0.0300
31     H31    -6.0449   -2.9060   -2.3283 H        1 ZINC000242437511    0.1700
32     N32    -5.3817   -1.9264   -4.0644 N.4      1 ZINC000242437511   -0.6300
33     H33    -6.0823   -2.3574   -4.6487 H        1 ZINC000242437511    0.4500
34     H34    -5.7107   -1.0243   -3.7545 H        1 ZINC000242437511    0.4500
35     H35    -4.5290   -1.8106   -4.5914 H        1 ZINC000242437511    0.4400
36     C36    -4.0615   -2.1272   -2.0116 C.3      1 ZINC000242437511    0.0300
37     H37    -4.4170   -1.1527   -1.6769 H        1 ZINC000242437511    0.1300
38     O38    -2.8540   -1.9632   -2.7579 O.3      1 ZINC000242437511   -0.3400
39     C39    -2.4086   -0.6087   -2.8525 C.3      1 ZINC000242437511    0.2300
40     H40    -2.2550   -0.2058   -1.8514 H        1 ZINC000242437511    0.1000
41     O41    -3.3939    0.1705   -3.5338 O.3      1 ZINC000242437511   -0.4100
42     C42    -3.0584    1.5538   -3.6608 C.3      1 ZINC000242437511    0.0500
43     C43    -1.7674    1.6919   -4.4720 C.3      1 ZINC000242437511    0.0800
44     C44    -1.3723    3.1675   -4.5570 C.3      1 ZINC000242437511   -0.2100
45     O45    -1.9733    1.1761   -5.7887 O.3      1 ZINC000242437511   -0.5600
46     C46    -0.6519    0.9023   -3.7802 C.3      1 ZINC000242437511    0.0500
47     H47    -0.4609    1.3279   -2.7951 H        1 ZINC000242437511    0.1700
48     N48     0.5720    0.9686   -4.5900 N.4      1 ZINC000242437511   -0.5000
49     H49     0.4273    0.4767   -5.4590 H        1 ZINC000242437511    0.4400
50     H50     0.7959    1.9333   -4.7828 H        1 ZINC000242437511    0.4400
51     C51     1.6805    0.3463   -3.8538 C.3      1 ZINC000242437511   -0.0500
52     C52    -1.0914   -0.5575   -3.6310 C.3      1 ZINC000242437511    0.0800
53     H53    -1.2345   -0.9975   -4.6179 H        1 ZINC000242437511    0.1200
54     O54    -0.0879   -1.2883   -2.9233 O.3      1 ZINC000242437511   -0.5500
55     C55    -3.7930   -3.0172   -0.7963 C.3      1 ZINC000242437511    0.1200
56     H56    -4.7141   -3.1423   -0.2271 H        1 ZINC000242437511    0.1200
57     O57    -2.8007   -2.4067    0.0312 O.3      1 ZINC000242437511   -0.5400
58     O58    -1.1075   -5.8369   -0.6425 O.3      1 ZINC000242437511   -0.4100
59     H59    -0.9088   -9.2118    2.7894 H        1 ZINC000242437511    0.1400
60     H60    -1.1656   -7.5712    3.4305 H        1 ZINC000242437511    0.1300
61     H61    -2.5617   -8.6176    3.0779 H        1 ZINC000242437511    0.1400
62     H62     0.2242   -6.5613    2.8751 H        1 ZINC000242437511    0.1000
63     H63     1.2698   -6.0204    1.5400 H        1 ZINC000242437511    0.1100
64     H64    -0.3936   -5.4013    1.6746 H        1 ZINC000242437511    0.0900
65     H65     1.5585   -5.8930   -0.3383 H        1 ZINC000242437511    0.1000
66     H66     1.7537   -7.5687   -0.9095 H        1 ZINC000242437511    0.1400
67     H67     2.0908   -5.8975   -2.7438 H        1 ZINC000242437511    0.1300
68     H68     0.7131   -6.9806   -3.0643 H        1 ZINC000242437511    0.1300
69     H69    -3.7038   -4.0236   -3.9368 H        1 ZINC000242437511    0.1300
70     H70    -5.3818   -4.6144   -3.9987 H        1 ZINC000242437511    0.1300
71     H71    -3.8662    2.0784   -4.1710 H        1 ZINC000242437511    0.1500
72     H72    -2.9131    1.9851   -2.6703 H        1 ZINC000242437511    0.1000
73     H73    -1.2133    3.5595   -3.5524 H        1 ZINC000242437511    0.1000
74     H74    -0.4531    3.2649   -5.1347 H        1 ZINC000242437511    0.0800
75     H75    -2.1690    3.7295   -5.0444 H        1 ZINC000242437511    0.1100
76     H76    -2.6705    1.6280   -6.2836 H        1 ZINC000242437511    0.4200
77     H77     1.5614   -0.7371   -3.8653 H        1 ZINC000242437511    0.1300
78     H78     2.6257    0.6131   -4.3266 H        1 ZINC000242437511    0.1400
79     H79     1.6768    0.7013   -2.8232 H        1 ZINC000242437511    0.1300
80     H80    -0.2364   -2.2437   -2.9050 H        1 ZINC000242437511    0.3700
81     H81    -3.0501   -1.5344    0.3658 H        1 ZINC000242437511    0.4100
@<TRIPOS>BOND
1     1     2     1
2     1     59    1
3     1     60    1
4     1     61    1
5     2     3     1
6     2     4     1
7     2     5     1
8     5     6     1
9     5     7     1
10    5     8     1
11    7     62    1
12    7     63    1
13    7     64    1
14    8     9     1
15    8     58    1
16    8     10    1
17    10    11    1
18    10    65    1
19    10    66    1
20    11    12    1
21    11    67    1
22    11    68    1
23    12    13    1
24    12    14    1
25    12    18    1
26    14    15    1
27    14    16    1
28    14    17    1
29    18    19    1
30    18    20    1
31    18    58    1
32    20    21    1
33    21    22    1
34    21    55    1
35    21    23    1
36    23    24    1
37    23    25    1
38    23    29    1
39    25    26    1
40    25    27    1
41    25    28    1
42    29    30    1
43    29    69    1
44    29    70    1
45    30    31    1
46    30    32    1
47    30    36    1
48    32    33    1
49    32    34    1
50    32    35    1
51    36    37    1
52    36    38    1
53    36    55    1
54    38    39    1
55    39    40    1
56    39    52    1
57    39    41    1
58    41    42    1
59    42    43    1
60    42    71    1
61    42    72    1
62    43    44    1
63    43    45    1
64    43    46    1
65    44    73    1
66    44    74    1
67    44    75    1
68    45    76    1
69    46    47    1
70    46    48    1
71    46    52    1
72    48    49    1
73    48    50    1
74    48    51    1
75    51    77    1
76    51    78    1
77    51    79    1
78    52    53    1
79    52    54    1
80    54    80    1
81    55    56    1
82    55    57    1
83    57    81    1
@<TRIPOS>SUBSTRUCTURE
1   ZINC000242437511 1     RESIDUE    1   A     ZIN   1
