@<TRIPOS>MOLECULE
ZINC000012358719
23   23    0    0    0
SMALL
USER_CHARGES
NO_NAME
@<TRIPOS>ATOM
1 C1       -0.0187     1.5258     0.0104 C.3    1 <0>      -0.1500
2 C2        0.0021    -0.0041     0.0020 C.3    1 <0>       0.0600
3 O3       -1.3601    -0.5067     0.0123 O.3    1 <0>      -0.3600
4 C4       -1.5186    -1.8449     0.0067 C.2    1 <0>       0.5100
5 O5       -0.5450    -2.5719    -0.0065 O.2    1 <0>      -0.5200
6 C6       -2.8727    -2.4267     0.0165 C.ar   1 <0>      -0.2000
7 C7       -3.9943    -1.5914     0.0259 C.ar   1 <0>      -0.0100
8 C8       -5.2526    -2.1359     0.0350 C.ar   1 <0>      -0.2200
9 C9       -5.4145    -3.5188     0.0354 C.ar   1 <0>       0.2500
10 N10      -6.6916    -4.0676     0.0452 N.pl3  1 <0>      -0.8600
11 C11      -4.2999    -4.3533     0.0256 C.ar   1 <0>      -0.2100
12 C12      -3.0389    -3.8153     0.0106 C.ar   1 <0>       0.0000
13 H13       1.0039     1.9031     0.0027 H      1 <0>       0.0800
14 H14      -0.5459     1.8868    -0.8726 H      1 <0>       0.0700
15 H15      -0.5289     1.8773     0.9072 H      1 <0>       0.0700
16 H16       0.5123    -0.3556    -0.8948 H      1 <0>       0.0700
17 H17       0.5293    -0.3651     0.8851 H      1 <0>       0.0700
18 H18      -3.8694    -0.5186     0.0263 H      1 <0>       0.1400
19 H19      -6.1192    -1.4914     0.0423 H      1 <0>       0.1300
20 H20      -7.4688    -3.4872     0.0517 H      1 <0>       0.4000
21 H21      -6.8056    -5.0308     0.0454 H      1 <0>       0.4000
22 H22      -4.4289    -5.4256     0.0256 H      1 <0>       0.1300
23 H23      -2.1748    -4.4632     0.0030 H      1 <0>       0.1400
@<TRIPOS>BOND
1    1    2 1
2    1   13 1
3    1   14 1
4    1   15 1
5    2    3 1
6    2   16 1
7    2   17 1
8    3    4 1
9    4    5 2
10    4    6 1
11    6   12 ar
12    6    7 ar
13    7    8 ar
14    7   18 1
15    8    9 ar
16    8   19 1
17    9   10 1
18    9   11 ar
19   10   20 1
20   10   21 1
21   11   12 ar
22   11   22 1
23   12   23 1
