@<TRIPOS>MOLECULE
ZINC000000057255
33    35    1     0     0
SMALL
USER_CHARGES
@<TRIPOS>ATOM
1      N1     -0.0204    1.6518    0.0111 N.am     1 ZINC000000057255   -1.2500
2      S2      0.0021   -0.0041    0.0020 S.o2     1 ZINC000000057255    2.7000
3      O3     -0.5249   -0.4194    1.2546 O.2      1 ZINC000000057255   -0.9500
4      O4     -0.5488   -0.4060   -1.2447 O.2      1 ZINC000000057255   -0.9400
5      C5      1.6920   -0.5027   -0.0168 C.ar     1 ZINC000000057255   -0.6700
6      C6      2.2205   -1.1941    1.0567 C.ar     1 ZINC000000057255    0.0200
7      C7      3.5465   -1.5854    1.0421 C.ar     1 ZINC000000057255   -0.1500
8      C8      4.1223   -2.3393    2.2130 C.3      1 ZINC000000057255    0.4300
9      O9      5.4736   -1.9343    2.4407 O.3      1 ZINC000000057255   -0.5300
10     N10     3.3137   -2.0998    3.4138 N.am     1 ZINC000000057255   -0.7400
11     C11     2.8188   -3.2735    3.8429 C.2      1 ZINC000000057255    0.5700
12     O12     2.1072   -3.4123    4.8186 O.2      1 ZINC000000057255   -0.5000
13     C13     3.2628   -4.3694    2.9604 C.ar     1 ZINC000000057255   -0.1500
14     C14     3.0266   -5.7450    2.9776 C.ar     1 ZINC000000057255   -0.0400
15     C15     3.5833   -6.5491    2.0042 C.ar     1 ZINC000000057255   -0.1100
16     C16     4.3741   -5.9985    1.0115 C.ar     1 ZINC000000057255   -0.0900
17     C17     4.6126   -4.6342    0.9876 C.ar     1 ZINC000000057255   -0.0800
18     C18     4.0629   -3.8239    1.9533 C.ar     1 ZINC000000057255   -0.0700
19     C19     4.3442   -1.2857   -0.0462 C.ar     1 ZINC000000057255   -0.0200
20     C20     3.8166   -0.5941   -1.1206 C.ar     1 ZINC000000057255   -0.1200
21     C21     2.4886   -0.2070   -1.1089 C.ar     1 ZINC000000057255    0.0600
22     Cl22    1.8253    0.6615   -2.4578 Cl       1 ZINC000000057255   -0.0300
23     H23     0.8130    2.1481    0.0058 H        1 ZINC000000057255    0.4200
24     H24    -0.8669    2.1253    0.0177 H        1 ZINC000000057255    0.4200
25     H25     1.5977   -1.4285    1.9073 H        1 ZINC000000057255    0.1600
26     H26     5.5754   -0.9908    2.6268 H        1 ZINC000000057255    0.3900
27     H27     3.1616   -1.2367    3.8295 H        1 ZINC000000057255    0.4300
28     H28     2.4101   -6.1789    3.7509 H        1 ZINC000000057255    0.1400
29     H29     3.4010   -7.6135    2.0175 H        1 ZINC000000057255    0.1400
30     H30     4.8064   -6.6341    0.2530 H        1 ZINC000000057255    0.1400
31     H31     5.2304   -4.2072    0.2114 H        1 ZINC000000057255    0.1300
32     H32     5.3799   -1.5916   -0.0571 H        1 ZINC000000057255    0.1500
33     H33     4.4399   -0.3600   -1.9710 H        1 ZINC000000057255    0.1500
@<TRIPOS>BOND
1     1     2     am
2     1     23    1
3     1     24    1
4     2     3     2
5     2     4     2
6     2     5     1
7     5     21    ar
8     5     6     ar
9     6     7     ar
10    6     25    1
11    7     8     1
12    7     19    ar
13    8     18    1
14    8     9     1
15    8     10    1
16    9     26    1
17    10    11    am
18    10    27    1
19    11    12    2
20    11    13    1
21    13    18    ar
22    13    14    ar
23    14    15    ar
24    14    28    1
25    15    16    ar
26    15    29    1
27    16    17    ar
28    16    30    1
29    17    18    ar
30    17    31    1
31    19    20    ar
32    19    32    1
33    20    21    ar
34    20    33    1
35    21    22    1
@<TRIPOS>SUBSTRUCTURE
1   ZINC000000057255 1     RESIDUE    1   A     ZIN   1
