@<TRIPOS>MOLECULE
ZINC000000901552
14    13    1     0     0
SMALL
USER_CHARGES
@<TRIPOS>ATOM
1      O1     -0.0173    1.4248    0.0099 O.3      1 ZINC000000901552   -0.5700
2      C2      0.0021   -0.0041    0.0020 C.3      1 ZINC000000901552    0.0800
3      C3     -1.4333   -0.5336    0.0129 C.3      1 ZINC000000901552   -0.0300
4      H4     -1.9156   -0.2570    0.9504 H        1 ZINC000000901552    0.1400
5      S5     -1.4124   -2.3405   -0.1461 S.3      1 ZINC000000901552   -0.1900
6      C6     -2.2094    0.0724   -1.1582 C.3      1 ZINC000000901552   -0.0700
7      S7     -3.9112   -0.5555   -1.1453 S.3      1 ZINC000000901552   -0.2100
8      H8      0.8606    1.8301    0.0037 H        1 ZINC000000901552    0.3900
9      H9      0.5123   -0.3556   -0.8948 H        1 ZINC000000901552    0.0500
10     H10     0.5293   -0.3651    0.8851 H        1 ZINC000000901552    0.0700
11     H11    -0.7992   -2.5332   -1.3276 H        1 ZINC000000901552    0.0800
12     H12    -2.2220    1.1581   -1.0626 H        1 ZINC000000901552    0.1100
13     H13    -1.7271   -0.2043   -2.0957 H        1 ZINC000000901552    0.0800
14     H14    -4.4654    0.0508   -2.2103 H        1 ZINC000000901552    0.0800
@<TRIPOS>BOND
1     1     2     1
2     1     8     1
3     2     3     1
4     2     9     1
5     2     10    1
6     3     4     1
7     3     5     1
8     3     6     1
9     5     11    1
10    6     7     1
11    6     12    1
12    6     13    1
13    7     14    1
@<TRIPOS>SUBSTRUCTURE
1   ZINC000000901552 1     RESIDUE    1   A     ZIN   1
