@<TRIPOS>MOLECULE
ZINC000000001464
36    38    1     0     0
SMALL
USER_CHARGES
@<TRIPOS>ATOM
1      C1     -0.0187    1.5258    0.0104 C.3      1 ZINC000000001464   -0.1500
2      C2      0.0021   -0.0041    0.0020 C.3      1 ZINC000000001464    0.0600
3      O3     -1.3601   -0.5067    0.0123 O.3      1 ZINC000000001464   -0.3300
4      C4     -1.5186   -1.8452    0.0066 C.2      1 ZINC000000001464    0.5600
5      O5     -0.5448   -2.5724   -0.0066 O.2      1 ZINC000000001464   -0.5100
6      C6     -2.8707   -2.4262    0.0164 C.2      1 ZINC000000001464   -0.0200
7      C7     -3.1791   -3.7521    0.0177 C.2      1 ZINC000000001464    0.0500
8      C8     -2.2175   -4.9109   -0.0446 C.3      1 ZINC000000001464    0.1600
9      N9     -2.5198   -5.6772   -1.2583 N.am     1 ZINC000000001464   -0.6000
10     C10    -1.4890   -5.8180   -2.2896 C.3      1 ZINC000000001464    0.0800
11     C11    -3.7093   -6.2483   -1.4461 C.2      1 ZINC000000001464    0.5500
12     O12    -3.8495   -6.8826   -2.4737 O.2      1 ZINC000000001464   -0.5200
13     C13    -4.8658   -6.1952   -0.5491 C.ar     1 ZINC000000001464   -0.0800
14     C14    -5.6074   -7.3742   -0.3661 C.ar     1 ZINC000000001464   -0.0800
15     C15    -6.7223   -7.3809    0.4429 C.ar     1 ZINC000000001464    0.1100
16     F16    -7.4241   -8.5227    0.6133 F        1 ZINC000000001464   -0.1200
17     C17    -7.1260   -6.2190    1.0832 C.ar     1 ZINC000000001464   -0.1100
18     C18    -6.4023   -5.0562    0.9220 C.ar     1 ZINC000000001464   -0.0900
19     C19    -5.2642   -5.0373    0.1211 C.ar     1 ZINC000000001464    0.1300
20     N20    -4.5305   -3.8501    0.0567 N.pl3    1 ZINC000000001464   -0.4000
21     C21    -5.0334   -2.5845    0.0410 C.2      1 ZINC000000001464    0.2100
22     N22    -4.0435   -1.7379    0.0318 N.2      1 ZINC000000001464   -0.4300
23     H23     1.0039    1.9031    0.0027 H        1 ZINC000000001464    0.0800
24     H24    -0.5459    1.8868   -0.8726 H        1 ZINC000000001464    0.0700
25     H25    -0.5289    1.8773    0.9072 H        1 ZINC000000001464    0.0700
26     H26     0.5123   -0.3556   -0.8948 H        1 ZINC000000001464    0.0700
27     H27     0.5293   -0.3651    0.8851 H        1 ZINC000000001464    0.0700
28     H28    -1.1937   -4.5394   -0.0877 H        1 ZINC000000001464    0.1500
29     H29    -2.3448   -5.5441    0.8334 H        1 ZINC000000001464    0.1000
30     H30    -0.8939   -6.7090   -2.0894 H        1 ZINC000000001464    0.0700
31     H31    -1.9629   -5.9096   -3.2669 H        1 ZINC000000001464    0.0800
32     H32    -0.8431   -4.9400   -2.2800 H        1 ZINC000000001464    0.0800
33     H33    -5.3008   -8.2826   -0.8633 H        1 ZINC000000001464    0.1600
34     H34    -8.0071   -6.2246    1.7076 H        1 ZINC000000001464    0.1600
35     H35    -6.7211   -4.1532    1.4214 H        1 ZINC000000001464    0.1500
36     H36    -6.0818   -2.3253    0.0414 H        1 ZINC000000001464    0.2300
@<TRIPOS>BOND
1     1     2     1
2     1     23    1
3     1     24    1
4     1     25    1
5     2     3     1
6     2     26    1
7     2     27    1
8     3     4     1
9     4     5     2
10    4     6     1
11    6     22    1
12    6     7     2
13    7     20    1
14    7     8     1
15    8     9     1
16    8     28    1
17    8     29    1
18    9     10    1
19    9     11    am
20    10    30    1
21    10    31    1
22    10    32    1
23    11    12    2
24    11    13    1
25    13    19    ar
26    13    14    ar
27    14    15    ar
28    14    33    1
29    15    16    1
30    15    17    ar
31    17    18    ar
32    17    34    1
33    18    19    ar
34    18    35    1
35    19    20    1
36    20    21    1
37    21    22    2
38    21    36    1
@<TRIPOS>SUBSTRUCTURE
1   ZINC000000001464 1     RESIDUE    1   A     ZIN   1
