@<TRIPOS>MOLECULE
ZINC000084843283
15    16    1     0     0
SMALL
USER_CHARGES
@<TRIPOS>ATOM
1      O1      0.0021   -0.0041    0.0020 O.2      1 ZINC000084843283   -0.4800
2      C2     -0.0144    1.2118    0.0087 C.2      1 ZINC000084843283    0.6400
3      N3     -1.1251    1.9749    0.0293 N.am     1 ZINC000084843283   -0.6500
4      C4     -0.7175    3.3086    0.0308 C.ar     1 ZINC000084843283    0.0800
5      C5     -1.4029    4.5128    0.0469 C.ar     1 ZINC000084843283   -0.0900
6      C6     -0.7005    5.7038    0.0426 C.ar     1 ZINC000084843283   -0.0200
7      Cl7    -1.5564    7.2140    0.0628 Cl       1 ZINC000084843283   -0.0400
8      C8      0.6841    5.6948    0.0227 C.ar     1 ZINC000084843283   -0.1000
9      C9      1.3731    4.4974    0.0061 C.ar     1 ZINC000084843283   -0.0600
10     C10     0.6773    3.2991    0.0103 C.ar     1 ZINC000084843283    0.0400
11     O11     1.0708    2.0016    0.0026 O.3      1 ZINC000084843283   -0.2300
12     H12    -2.0408    1.6549    0.0406 H        1 ZINC000084843283    0.4500
13     H13    -2.4828    4.5210    0.0625 H        1 ZINC000084843283    0.1500
14     H14     1.2277    6.6279    0.0198 H        1 ZINC000084843283    0.1600
15     H15     2.4530    4.4954   -0.0101 H        1 ZINC000084843283    0.1500
@<TRIPOS>BOND
1     1     2     2
2     2     11    1
3     2     3     am
4     3     4     1
5     3     12    1
6     4     10    ar
7     4     5     ar
8     5     6     ar
9     5     13    1
10    6     7     1
11    6     8     ar
12    8     9     ar
13    8     14    1
14    9     10    ar
15    9     15    1
16    10    11    1
@<TRIPOS>SUBSTRUCTURE
1   ZINC000084843283 1     RESIDUE    1   A     ZIN   1
