@<TRIPOS>MOLECULE
ZINC000043195697
68    70    1     0     0
SMALL
USER_CHARGES
@<TRIPOS>ATOM
1      C1     -0.0173    1.4248    0.0099 C.3      1 ZINC000043195697    0.0300
2      O2      0.0021   -0.0041    0.0020 O.3      1 ZINC000043195697   -0.3100
3      C3      0.6062   -0.6075   -1.0564 C.ar     1 ZINC000043195697    0.1100
4      C4      1.1724    0.1558   -2.0615 C.ar     1 ZINC000043195697   -0.1700
5      C5      1.7905   -0.4546   -3.1431 C.ar     1 ZINC000043195697   -0.0600
6      C6      1.8448   -1.8305   -3.2187 C.ar     1 ZINC000043195697   -0.0700
7      C7      1.2761   -2.6002   -2.2137 C.ar     1 ZINC000043195697   -0.1700
8      C8      0.6628   -1.9964   -1.1310 C.ar     1 ZINC000043195697    0.1000
9      O9      0.1079   -2.7562   -0.1491 O.3      1 ZINC000043195697   -0.3000
10     C10     0.1943   -4.1747   -0.2994 C.3      1 ZINC000043195697    0.0300
11     C11     2.5143   -2.5346   -4.3681 C.3      1 ZINC000043195697    0.1400
12     H12     3.4974   -2.8827   -4.0514 H        1 ZINC000043195697    0.0500
13     C13     1.6716   -3.7356   -4.8034 C.3      1 ZINC000043195697   -0.1200
14     C14     2.3814   -4.4548   -5.9546 C.3      1 ZINC000043195697    0.0900
15     H15     3.3426   -4.8349   -5.6086 H        1 ZINC000043195697    0.0800
16     O16     1.5604   -5.5603   -6.4151 O.3      1 ZINC000043195697   -0.3400
17     C17     1.7528   -6.7499   -5.8239 C.2      1 ZINC000043195697    0.4300
18     O18     2.5800   -6.8637   -4.9505 O.2      1 ZINC000043195697   -0.5100
19     C19     0.9373   -7.9435   -6.2494 C.3      1 ZINC000043195697    0.1000
20     H20     0.8214   -7.9366   -7.3332 H        1 ZINC000043195697    0.1200
21     N21     1.6221   -9.1763   -5.8380 N.3      1 ZINC000043195697   -0.8100
22     C22    -0.4413   -7.8811   -5.5887 C.3      1 ZINC000043195697   -0.0800
23     C23    -1.1545   -6.5971   -6.0171 C.3      1 ZINC000043195697   -0.1600
24     C24    -1.2693   -9.0930   -6.0207 C.3      1 ZINC000043195697   -0.1400
25     C25     2.6055   -3.4698   -7.1049 C.3      1 ZINC000043195697   -0.0800
26     H26     1.6424   -3.1236   -7.4800 H        1 ZINC000043195697    0.1000
27     C27     3.3713   -4.1666   -8.2315 C.3      1 ZINC000043195697   -0.1100
28     C28     3.4864   -3.2224   -9.4299 C.3      1 ZINC000043195697   -0.1000
29     C29     4.3575   -3.8704  -10.5079 C.3      1 ZINC000043195697   -0.1500
30     C30     2.0927   -2.9470   -9.9979 C.3      1 ZINC000043195697   -0.1500
31     C31     3.4165   -2.2737   -6.5994 C.3      1 ZINC000043195697    0.0600
32     N32     2.6684   -1.6304   -5.5103 N.3      1 ZINC000043195697   -0.5200
33     C33     3.3234   -0.3917   -5.0680 C.3      1 ZINC000043195697    0.0500
34     C34     2.3866    0.4211   -4.2154 C.3      1 ZINC000043195697   -0.0700
35     H35     1.0053    1.8021    0.0021 H        1 ZINC000043195697    0.0500
36     H36    -0.5445    1.7859   -0.8732 H        1 ZINC000043195697    0.0600
37     H37    -0.5275    1.7763    0.9067 H        1 ZINC000043195697    0.1000
38     H38     1.1328    1.2335   -2.0039 H        1 ZINC000043195697    0.1400
39     H39     1.3161   -3.6777   -2.2754 H        1 ZINC000043195697    0.1300
40     H40    -0.2861   -4.6600    0.5502 H        1 ZINC000043195697    0.1000
41     H41    -0.3072   -4.4737   -1.2199 H        1 ZINC000043195697    0.0500
42     H42     1.2419   -4.4722   -0.3432 H        1 ZINC000043195697    0.0500
43     H43     1.5523   -4.4206   -3.9640 H        1 ZINC000043195697    0.0700
44     H44     0.6924   -3.3920   -5.1369 H        1 ZINC000043195697    0.0900
45     H45     2.5081   -9.2729   -6.3111 H        1 ZINC000043195697    0.3500
46     H46     1.7417   -9.2066   -4.8366 H        1 ZINC000043195697    0.3500
47     H47    -0.3253   -7.8880   -4.5049 H        1 ZINC000043195697    0.0700
48     H48    -1.2704   -6.5903   -7.1009 H        1 ZINC000043195697    0.0600
49     H49    -2.1366   -6.5527   -5.5464 H        1 ZINC000043195697    0.0600
50     H50    -0.5646   -5.7338   -5.7093 H        1 ZINC000043195697    0.0600
51     H51    -0.7611  -10.0077   -5.7155 H        1 ZINC000043195697    0.0700
52     H52    -2.2514   -9.0485   -5.5500 H        1 ZINC000043195697    0.0600
53     H53    -1.3852   -9.0861   -7.1045 H        1 ZINC000043195697    0.0600
54     H54     4.3687   -4.4333   -7.8820 H        1 ZINC000043195697    0.0600
55     H55     2.8374   -5.0689   -8.5298 H        1 ZINC000043195697    0.0700
56     H56     3.9407   -2.2843   -9.1110 H        1 ZINC000043195697    0.0700
57     H57     3.9032   -4.8085  -10.8267 H        1 ZINC000043195697    0.0500
58     H58     4.4395   -3.1977  -11.3616 H        1 ZINC000043195697    0.0600
59     H59     5.3504   -4.0666  -10.1032 H        1 ZINC000043195697    0.0500
60     H60     1.4720   -2.4853   -9.2299 H        1 ZINC000043195697    0.0600
61     H61     2.1747   -2.2743  -10.8516 H        1 ZINC000043195697    0.0500
62     H62     1.6384   -3.8851  -10.3167 H        1 ZINC000043195697    0.0500
63     H63     4.3866   -2.6176   -6.2405 H        1 ZINC000043195697    0.0400
64     H64     3.5603   -1.5620   -7.4123 H        1 ZINC000043195697    0.0900
65     H65     4.2005   -0.6354   -4.4686 H        1 ZINC000043195697    0.0400
66     H66     3.6220    0.1947   -5.9369 H        1 ZINC000043195697    0.0800
67     H67     1.5881    0.8239   -4.8385 H        1 ZINC000043195697    0.0900
68     H68     2.9360    1.2440   -3.7581 H        1 ZINC000043195697    0.0800
@<TRIPOS>BOND
1     1     2     1
2     1     35    1
3     1     36    1
4     1     37    1
5     2     3     1
6     3     8     ar
7     3     4     ar
8     4     5     ar
9     4     38    1
10    5     34    1
11    5     6     ar
12    6     7     ar
13    6     11    1
14    7     8     ar
15    7     39    1
16    8     9     1
17    9     10    1
18    10    40    1
19    10    41    1
20    10    42    1
21    11    12    1
22    11    32    1
23    11    13    1
24    13    14    1
25    13    43    1
26    13    44    1
27    14    15    1
28    14    16    1
29    14    25    1
30    16    17    1
31    17    18    2
32    17    19    1
33    19    20    1
34    19    21    1
35    19    22    1
36    21    45    1
37    21    46    1
38    22    23    1
39    22    24    1
40    22    47    1
41    23    48    1
42    23    49    1
43    23    50    1
44    24    51    1
45    24    52    1
46    24    53    1
47    25    26    1
48    25    27    1
49    25    31    1
50    27    28    1
51    27    54    1
52    27    55    1
53    28    29    1
54    28    30    1
55    28    56    1
56    29    57    1
57    29    58    1
58    29    59    1
59    30    60    1
60    30    61    1
61    30    62    1
62    31    32    1
63    31    63    1
64    31    64    1
65    32    33    1
66    33    34    1
67    33    65    1
68    33    66    1
69    34    67    1
70    34    68    1
@<TRIPOS>SUBSTRUCTURE
1   ZINC000043195697 1     RESIDUE    1   A     ZIN   1
