@<TRIPOS>MOLECULE
ZINC000000005878
15    15    1     0     0
SMALL
USER_CHARGES
@<TRIPOS>ATOM
1      N1     -0.0162    1.3436    0.0094 N.am     1 ZINC000000005878   -0.8500
2      C2      0.0021   -0.0041    0.0020 C.2      1 ZINC000000005878    0.5700
3      O3      1.0628   -0.5974   -0.0113 O.2      1 ZINC000000005878   -0.5400
4      C4     -1.2681   -0.7606    0.0101 C.ar     1 ZINC000000005878   -0.1900
5      C5     -1.2627   -2.1605    0.0084 C.ar     1 ZINC000000005878   -0.0200
6      C6     -2.4788   -2.8210    0.0167 C.ar     1 ZINC000000005878   -0.1800
7      C7     -3.6493   -2.0843    0.0263 C.ar     1 ZINC000000005878    0.1200
8      N8     -3.6239   -0.7649    0.0272 N.ar     1 ZINC000000005878   -0.4900
9      C9     -2.4926   -0.0913    0.0254 C.ar     1 ZINC000000005878    0.1400
10     H10     0.8172    1.8399    0.0041 H        1 ZINC000000005878    0.4100
11     H11    -0.8627    1.8171    0.0160 H        1 ZINC000000005878    0.4000
12     H12    -0.3335   -2.7108    0.0005 H        1 ZINC000000005878    0.1500
13     H13    -2.5135   -3.9004    0.0153 H        1 ZINC000000005878    0.1500
14     H14    -4.5997   -2.5972    0.0327 H        1 ZINC000000005878    0.1600
15     H15    -2.5125    0.9885    0.0266 H        1 ZINC000000005878    0.1600
@<TRIPOS>BOND
1     1     2     am
2     1     10    1
3     1     11    1
4     2     3     2
5     2     4     1
6     4     9     ar
7     4     5     ar
8     5     6     ar
9     5     12    1
10    6     7     ar
11    6     13    1
12    7     8     ar
13    7     14    1
14    8     9     ar
15    9     15    1
@<TRIPOS>SUBSTRUCTURE
1   ZINC000000005878 1     RESIDUE    1   A     ZIN   1
