@<TRIPOS>MOLECULE
ZINC000001482094
33   33    0    0    0
SMALL
USER_CHARGES
NO_NAME
@<TRIPOS>ATOM
1 C1       -0.5289     1.3300    -2.2479 C.3    1 <0>      -0.0500
2 N2       -0.2910    -0.1196    -2.2597 N.4    1 <0>      -0.5100
3 H3       -1.1694    -0.6054    -2.1571 H      1 <0>       0.4300
4 H4        0.1389    -0.3828    -3.1337 H      1 <0>       0.4300
5 C5        0.5998    -0.4786    -1.1481 C.3    1 <0>       0.0200
6 H6        0.1856    -0.1000    -0.2137 H      1 <0>       0.1400
7 C7        1.9803     0.1385    -1.3811 C.3    1 <0>      -0.1900
8 C8        0.7285    -2.0011    -1.0691 C.3    1 <0>      -0.1400
9 C9        1.5393    -2.3806     0.1717 C.3    1 <0>      -0.0800
10 C10       0.7600    -1.9906     1.4292 C.3    1 <0>      -0.1200
11 C11       1.5708    -2.3701     2.6700 C.3    1 <0>      -0.1200
12 C12       1.8217    -3.8793     2.6732 C.3    1 <0>      -0.1200
13 C13       2.6011    -4.2694     1.4157 C.3    1 <0>      -0.1200
14 C14       1.7903    -3.8899     0.1749 C.3    1 <0>      -0.1200
15 H15      -0.9933     1.6143    -1.3037 H      1 <0>       0.1200
16 H16       0.4200     1.8548    -2.3587 H      1 <0>       0.1200
17 H17      -1.1899     1.5964    -3.0727 H      1 <0>       0.1300
18 H18       1.8886     1.2232    -1.4374 H      1 <0>       0.0800
19 H19       2.6413    -0.1279    -0.5564 H      1 <0>       0.1100
20 H20       2.3945    -0.2401    -2.3156 H      1 <0>       0.0800
21 H21      -0.2641    -2.4468    -1.0048 H      1 <0>       0.0900
22 H22       1.2353    -2.3697    -1.9610 H      1 <0>       0.0900
23 H23       2.4934    -1.8537     0.1575 H      1 <0>       0.0800
24 H24       0.5812    -0.9153     1.4269 H      1 <0>       0.0600
25 H25      -0.1941    -2.5175     1.4434 H      1 <0>       0.0700
26 H26       2.5248    -1.8431     2.6557 H      1 <0>       0.0600
27 H27       1.0155    -2.0922     3.5658 H      1 <0>       0.0700
28 H28       2.3994    -4.1497     3.5571 H      1 <0>       0.0700
29 H29       0.8677    -4.4063     2.6874 H      1 <0>       0.0600
30 H30       3.5552    -3.7425     1.4015 H      1 <0>       0.0600
31 H31       2.7799    -5.3447     1.4180 H      1 <0>       0.0700
32 H32       0.8363    -4.4169     0.1892 H      1 <0>       0.0700
33 H33       2.3456    -4.1678    -0.7209 H      1 <0>       0.0700
@<TRIPOS>BOND
1    1    2 1
2    1   15 1
3    1   16 1
4    1   17 1
5    2    3 1
6    2    4 1
7    2    5 1
8    5    6 1
9    5    7 1
10    5    8 1
11    7   18 1
12    7   19 1
13    7   20 1
14    8    9 1
15    8   21 1
16    8   22 1
17    9   14 1
18    9   10 1
19    9   23 1
20   10   11 1
21   10   24 1
22   10   25 1
23   11   12 1
24   11   26 1
25   11   27 1
26   12   13 1
27   12   28 1
28   12   29 1
29   13   14 1
30   13   30 1
31   13   31 1
32   14   32 1
33   14   33 1
