@<TRIPOS>MOLECULE
ZINC000001851149
57    60    1     0     0
SMALL
USER_CHARGES
@<TRIPOS>ATOM
1      O1      0.0021   -0.0041    0.0020 O.2      1 ZINC000001851149   -0.5200
2      C2     -0.0144    1.2087    0.0087 C.2      1 ZINC000001851149    0.5200
3      C3     -1.3325    1.9346    0.0314 C.3      1 ZINC000001851149   -0.1400
4      C4     -1.2106    3.2093    0.8669 C.3      1 ZINC000001851149   -0.0700
5      C5      0.0157    3.9749    0.4418 C.ar     1 ZINC000001851149   -0.1600
6      C6      0.0152    5.3556    0.4696 C.ar     1 ZINC000001851149   -0.0400
7      C7      1.1403    6.0572    0.0793 C.ar     1 ZINC000001851149   -0.2300
8      C8      2.2737    5.3762   -0.3417 C.ar     1 ZINC000001851149    0.1600
9      O9      3.3791    6.0676   -0.7251 O.3      1 ZINC000001851149   -0.3100
10     C10     3.3041    7.4935   -0.6694 C.3      1 ZINC000001851149    0.0600
11     C11     4.6327    8.0927   -1.1349 C.3      1 ZINC000001851149   -0.1200
12     C12     4.5524    9.6194   -1.0753 C.3      1 ZINC000001851149   -0.1200
13     C13     5.8810   10.2186   -1.5407 C.3      1 ZINC000001851149    0.0600
14     N14     5.8039   11.6844   -1.4835 N.3      1 ZINC000001851149   -0.5400
15     C15     4.5492   12.1693   -2.0752 C.3      1 ZINC000001851149    0.0500
16     C16     4.4717   13.6904   -1.9247 C.3      1 ZINC000001851149    0.0600
17     N17     5.6330   14.3050   -2.5829 N.3      1 ZINC000001851149   -0.5000
18     C18     5.5597   15.6995   -2.5285 C.ar     1 ZINC000001851149    0.1100
19     C19     5.5246   16.3469   -1.3006 C.ar     1 ZINC000001851149   -0.1300
20     C20     5.4520   17.7257   -1.2494 C.ar     1 ZINC000001851149   -0.0900
21     C21     5.4138   18.4620   -2.4187 C.ar     1 ZINC000001851149   -0.1000
22     C22     5.4486   17.8210   -3.6452 C.ar     1 ZINC000001851149   -0.0300
23     Cl23    5.4004   18.7497   -5.1110 Cl       1 ZINC000001851149   -0.0400
24     C24     5.5274   16.4417   -3.7033 C.ar     1 ZINC000001851149   -0.0100
25     Cl25    5.5715   15.6374   -5.2411 Cl       1 ZINC000001851149   -0.0300
26     C26     6.8878   13.8201   -1.9912 C.3      1 ZINC000001851149    0.0600
27     C27     6.9653   12.2990   -2.1417 C.3      1 ZINC000001851149    0.0600
28     C28     2.2780    3.9901   -0.3707 C.ar     1 ZINC000001851149   -0.1900
29     C29     1.1479    3.2877    0.0218 C.ar     1 ZINC000001851149    0.2000
30     N30     1.1462    1.8896    0.0013 N.am     1 ZINC000001851149   -0.6600
31     H31    -1.6198    2.1954   -0.9872 H        1 ZINC000001851149    0.1100
32     H32    -2.0944    1.2880    0.4667 H        1 ZINC000001851149    0.1100
33     H33    -2.0952    3.8281    0.7165 H        1 ZINC000001851149    0.0900
34     H34    -1.1268    2.9459    1.9213 H        1 ZINC000001851149    0.0800
35     H35    -0.8658    5.8879    0.7966 H        1 ZINC000001851149    0.1300
36     H36     1.1372    7.1370    0.1018 H        1 ZINC000001851149    0.1300
37     H37     2.5012    7.8408   -1.3198 H        1 ZINC000001851149    0.0600
38     H38     3.1032    7.8071    0.3550 H        1 ZINC000001851149    0.0700
39     H39     5.4355    7.7454   -0.4846 H        1 ZINC000001851149    0.0800
40     H40     4.8336    7.7791   -2.1593 H        1 ZINC000001851149    0.0700
41     H41     3.7495    9.9667   -1.7256 H        1 ZINC000001851149    0.0700
42     H42     4.3515    9.9330   -0.0508 H        1 ZINC000001851149    0.0800
43     H43     6.6839    9.8713   -0.8904 H        1 ZINC000001851149    0.0800
44     H44     6.0819    9.9050   -2.5652 H        1 ZINC000001851149    0.0400
45     H45     4.5204   11.9066   -3.1326 H        1 ZINC000001851149    0.0500
46     H46     3.7040   11.7097   -1.5628 H        1 ZINC000001851149    0.0900
47     H47     3.5554   14.0555   -2.3886 H        1 ZINC000001851149    0.0800
48     H48     4.4730   13.9517   -0.8665 H        1 ZINC000001851149    0.0500
49     H49     5.5536   15.7731   -0.3861 H        1 ZINC000001851149    0.1400
50     H50     5.4247   18.2290   -0.2942 H        1 ZINC000001851149    0.1400
51     H51     5.3564   19.5396   -2.3753 H        1 ZINC000001851149    0.1400
52     H52     7.7329   14.2797   -2.5036 H        1 ZINC000001851149    0.0800
53     H53     6.9166   14.0829   -0.9338 H        1 ZINC000001851149    0.0500
54     H54     7.8816   11.9339   -1.6778 H        1 ZINC000001851149    0.0800
55     H55     6.9639   12.0377   -3.1999 H        1 ZINC000001851149    0.0500
56     H56     3.1590    3.4584   -0.6985 H        1 ZINC000001851149    0.1400
57     H57     1.9874    1.4072   -0.0219 H        1 ZINC000001851149    0.4100
@<TRIPOS>BOND
1     1     2     2
2     2     30    am
3     2     3     1
4     3     4     1
5     3     31    1
6     3     32    1
7     4     5     1
8     4     33    1
9     4     34    1
10    5     29    ar
11    5     6     ar
12    6     7     ar
13    6     35    1
14    7     8     ar
15    7     36    1
16    8     9     1
17    8     28    ar
18    9     10    1
19    10    11    1
20    10    37    1
21    10    38    1
22    11    12    1
23    11    39    1
24    11    40    1
25    12    13    1
26    12    41    1
27    12    42    1
28    13    14    1
29    13    43    1
30    13    44    1
31    14    27    1
32    14    15    1
33    15    16    1
34    15    45    1
35    15    46    1
36    16    17    1
37    16    47    1
38    16    48    1
39    17    18    1
40    17    26    1
41    18    24    ar
42    18    19    ar
43    19    20    ar
44    19    49    1
45    20    21    ar
46    20    50    1
47    21    22    ar
48    21    51    1
49    22    23    1
50    22    24    ar
51    24    25    1
52    26    27    1
53    26    52    1
54    26    53    1
55    27    54    1
56    27    55    1
57    28    29    ar
58    28    56    1
59    29    30    1
60    30    57    1
@<TRIPOS>SUBSTRUCTURE
1   ZINC000001851149 1     RESIDUE    1   A     ZIN   1
