@<TRIPOS>MOLECULE
ZINC000022059268
54    54    1     0     0
SMALL
USER_CHARGES
@<TRIPOS>ATOM
1      O1     -2.0599    2.5446   -2.3448 O.co2    1 ZINC000022059268   -0.6700
2      C2     -1.2856    2.7867   -1.4346 C.2      1 ZINC000022059268    0.4900
3      O3     -0.3800    3.5859   -1.6010 O.co2    1 ZINC000022059268   -0.6800
4      C4     -1.4516    2.1028   -0.1021 C.3      1 ZINC000022059268   -0.0700
5      N5     -2.6093    1.2001   -0.1558 N.3      1 ZINC000022059268   -0.5000
6      C6     -2.6149    0.2823    0.9912 C.3      1 ZINC000022059268    0.0300
7      C7     -1.3764    0.5356    1.8531 C.3      1 ZINC000022059268   -0.0800
8      N8     -1.7898    0.8075    3.2363 N.4      1 ZINC000022059268   -0.3600
9      H9     -2.7928    0.9108    3.2734 H        1 ZINC000022059268    0.4100
10     C10    -1.3802   -0.3093    4.0983 C.3      1 ZINC000022059268   -0.0800
11     C11    -1.9104   -0.0890    5.4916 C.2      1 ZINC000022059268    0.4900
12     O12    -2.5684    0.9061    5.7433 O.co2    1 ZINC000022059268   -0.6600
13     O13    -1.6813   -0.9059    6.3673 O.co2    1 ZINC000022059268   -0.6600
14     C14    -1.1524    2.0459    3.7034 C.3      1 ZINC000022059268   -0.0400
15     C15    -2.2204    2.9928    4.2542 C.3      1 ZINC000022059268    0.0900
16     N16    -2.1441    4.2797    3.5499 N.3      1 ZINC000022059268   -0.5000
17     C17    -1.1380    4.2358    2.4805 C.3      1 ZINC000022059268   -0.0700
18     C18     0.2389    4.1637    3.0889 C.2      1 ZINC000022059268    0.4900
19     O19     0.3699    4.1503    4.3010 O.co2    1 ZINC000022059268   -0.6600
20     O20     1.2219    4.1189    2.3690 O.co2    1 ZINC000022059268   -0.6800
21     C21    -3.4581    4.6690    3.0208 C.3      1 ZINC000022059268    0.0300
22     C22    -3.3331    4.9891    1.5299 C.3      1 ZINC000022059268   -0.0800
23     N23    -4.2748    4.1565    0.7697 N.4      1 ZINC000022059268   -0.3600
24     H24    -4.7009    3.4815    1.3868 H        1 ZINC000022059268    0.4100
25     C25    -5.3170    5.0085    0.1815 C.3      1 ZINC000022059268   -0.0800
26     C26    -6.3500    4.1442   -0.4945 C.2      1 ZINC000022059268    0.4900
27     O27    -6.2292    2.9310   -0.4871 O.co2    1 ZINC000022059268   -0.6600
28     O28    -7.3065    4.6582   -1.0490 O.co2    1 ZINC000022059268   -0.6600
29     C29    -3.5541    3.4548   -0.3008 C.3      1 ZINC000022059268   -0.0400
30     C30    -3.8652    1.9585   -0.2294 C.3      1 ZINC000022059268    0.0900
31     H31    -0.5535    1.5288    0.1261 H        1 ZINC000022059268    0.0900
32     H32    -1.6108    2.8520    0.6735 H        1 ZINC000022059268    0.0500
33     H33    -3.5124    0.4502    1.5865 H        1 ZINC000022059268    0.0600
34     H34    -2.6038   -0.7471    0.6329 H        1 ZINC000022059268    0.1000
35     H35    -0.7332   -0.3441    1.8324 H        1 ZINC000022059268    0.1300
36     H36    -0.8307    1.3941    1.4616 H        1 ZINC000022059268    0.1600
37     H37    -1.7811   -1.2414    3.7001 H        1 ZINC000022059268    0.1200
38     H38    -0.2921   -0.3651    4.1282 H        1 ZINC000022059268    0.1200
39     H39    -0.4347    1.8110    4.4894 H        1 ZINC000022059268    0.1300
40     H40    -0.6362    2.5250    2.8715 H        1 ZINC000022059268    0.1500
41     H41    -3.2070    2.5544    4.1042 H        1 ZINC000022059268    0.0600
42     H42    -2.0513    3.1510    5.3194 H        1 ZINC000022059268    0.1200
43     H43    -1.3068    3.3566    1.8587 H        1 ZINC000022059268    0.0500
44     H44    -1.2183    5.1344    1.8689 H        1 ZINC000022059268    0.0900
45     H45    -4.1627    3.8488    3.1585 H        1 ZINC000022059268    0.0600
46     H46    -3.8175    5.5499    3.5527 H        1 ZINC000022059268    0.1000
47     H47    -3.5627    6.0416    1.3638 H        1 ZINC000022059268    0.1300
48     H48    -2.3156    4.7824    1.1980 H        1 ZINC000022059268    0.1600
49     H49    -5.7924    5.5958    0.9671 H        1 ZINC000022059268    0.1200
50     H50    -4.8677    5.6785   -0.5516 H        1 ZINC000022059268    0.1200
51     H51    -3.8697    3.8457   -1.2681 H        1 ZINC000022059268    0.1300
52     H52    -2.4820    3.6092   -0.1788 H        1 ZINC000022059268    0.1500
53     H53    -4.4186    1.6595   -1.1196 H        1 ZINC000022059268    0.1200
54     H54    -4.4655    1.7542    0.6572 H        1 ZINC000022059268    0.0600
@<TRIPOS>BOND
1     1     2     ar
2     2     3     ar
3     2     4     1
4     4     5     1
5     4     31    1
6     4     32    1
7     5     30    1
8     5     6     1
9     6     7     1
10    6     33    1
11    6     34    1
12    7     8     1
13    7     35    1
14    7     36    1
15    8     9     1
16    8     10    1
17    8     14    1
18    10    11    1
19    10    37    1
20    10    38    1
21    11    12    ar
22    11    13    ar
23    14    15    1
24    14    39    1
25    14    40    1
26    15    16    1
27    15    41    1
28    15    42    1
29    16    17    1
30    16    21    1
31    17    18    1
32    17    43    1
33    17    44    1
34    18    19    ar
35    18    20    ar
36    21    22    1
37    21    45    1
38    21    46    1
39    22    23    1
40    22    47    1
41    22    48    1
42    23    24    1
43    23    25    1
44    23    29    1
45    25    26    1
46    25    49    1
47    25    50    1
48    26    27    ar
49    26    28    ar
50    29    30    1
51    29    51    1
52    29    52    1
53    30    53    1
54    30    54    1
@<TRIPOS>SUBSTRUCTURE
1   ZINC000022059268 1     RESIDUE    1   A     ZIN   1
