@<TRIPOS>MOLECULE
ZINC000000895103
17   16    0    0    0
SMALL
USER_CHARGES
NO_NAME
@<TRIPOS>ATOM
1 C1       -0.0187     1.5258     0.0104 C.3    1 <0>      -0.2000
2 C2        0.0021    -0.0041     0.0020 C.3    1 <0>       0.1000
3 H3        0.5123    -0.3556    -0.8948 H      1 <0>       0.0900
4 O4        0.6932    -0.4774     1.1597 O.3    1 <0>      -0.5500
5 C5       -1.4333    -0.5336     0.0129 C.3    1 <0>      -0.0400
6 H6       -1.9334    -0.2470    -0.9122 H      1 <0>       0.1400
7 N7       -2.1568     0.0360     1.1574 N.4    1 <0>      -0.6100
8 H8       -2.1700     1.0420     1.0800 H      1 <0>       0.4100
9 H9       -3.1034    -0.3132     1.1646 H      1 <0>       0.4300
10 H10      -1.6939    -0.2293     2.0138 H      1 <0>       0.4400
11 C11      -1.4136    -2.0361     0.1285 C.2    1 <0>       0.4900
12 O12      -1.4274    -2.5632     1.2278 O.co2  1 <0>      -0.6600
13 O13      -1.3838    -2.7245    -0.8773 O.co2  1 <0>      -0.6400
14 H14       1.0039     1.9031     0.0027 H      1 <0>       0.0800
15 H15      -0.5459     1.8868    -0.8726 H      1 <0>       0.0800
16 H16      -0.5289     1.8773     0.9072 H      1 <0>       0.0600
17 H17       1.6114    -0.1800     1.2187 H      1 <0>       0.3900
@<TRIPOS>BOND
1    1    2 1
2    1   14 1
3    1   15 1
4    1   16 1
5    2    3 1
6    2    4 1
7    2    5 1
8    4   17 1
9    5    6 1
10    5    7 1
11    5   11 1
12    7    8 1
13    7    9 1
14    7   10 1
15   11   12 ar
16   11   13 ar
