@<TRIPOS>MOLECULE
ZINC000001530775
51    52    1     0     0
SMALL
USER_CHARGES
@<TRIPOS>ATOM
1      N1     -0.0160    1.3282    0.0093 N.pl3    1 ZINC000001530775   -0.7600
2      C2      0.0021   -0.0041    0.0020 C.cat    1 ZINC000001530775    0.6100
3      N3      1.1649   -0.6545   -0.0126 N.pl3    1 ZINC000001530775   -0.7600
4      H4      1.9982   -0.1581   -0.0179 H        1 ZINC000001530775    0.4300
5      H5      1.1780   -1.6244   -0.0179 H        1 ZINC000001530775    0.4400
6      C6     -1.2673   -0.7602    0.0101 C.ar     1 ZINC000001530775   -0.2100
7      C7     -2.4000   -0.2200    0.6231 C.ar     1 ZINC000001530775   -0.0200
8      C8     -3.5815   -0.9278    0.6286 C.ar     1 ZINC000001530775   -0.1500
9      C9     -3.6474   -2.1782    0.0257 C.ar     1 ZINC000001530775    0.2000
10     O10    -4.8134   -2.8727    0.0331 O.3      1 ZINC000001530775   -0.3000
11     C11    -4.8109   -4.1515   -0.6047 C.3      1 ZINC000001530775    0.0500
12     C12    -6.2022   -4.7787   -0.4954 C.3      1 ZINC000001530775   -0.1200
13     C13    -6.1995   -6.1478   -1.1783 C.3      1 ZINC000001530775   -0.1100
14     C14    -7.5908   -6.7750   -1.0690 C.3      1 ZINC000001530775   -0.1200
15     C15    -7.5881   -8.1441   -1.7519 C.3      1 ZINC000001530775    0.0500
16     O16    -8.8876   -8.7299   -1.6498 O.3      1 ZINC000001530775   -0.3000
17     C17    -9.0568   -9.9550   -2.2088 C.ar     1 ZINC000001530775    0.2000
18     C18    -7.9890  -10.5830   -2.8387 C.ar     1 ZINC000001530775   -0.2100
19     C19    -8.1570  -11.8263   -3.4071 C.ar     1 ZINC000001530775   -0.0100
20     C20    -9.4022  -12.4560   -3.3496 C.ar     1 ZINC000001530775   -0.2100
21     C21    -9.5864  -13.7899   -3.9577 C.cat    1 ZINC000001530775    0.6100
22     N22   -10.4784  -14.6377   -3.4468 N.pl3    1 ZINC000001530775   -0.7600
23     N23    -8.8604  -14.1451   -5.0170 N.pl3    1 ZINC000001530775   -0.7600
24     H24    -8.2110  -13.5280   -5.3889 H        1 ZINC000001530775    0.4400
25     H25    -8.9813  -15.0209   -5.4163 H        1 ZINC000001530775    0.4300
26     C26   -10.4729  -11.8220   -2.7153 C.ar     1 ZINC000001530775   -0.0200
27     C27   -10.2960  -10.5808   -2.1450 C.ar     1 ZINC000001530775   -0.1500
28     C28    -2.5224   -2.7189   -0.5853 C.ar     1 ZINC000001530775   -0.2100
29     C29    -1.3390   -2.0143   -0.6003 C.ar     1 ZINC000001530775   -0.0100
30     H30     0.8174    1.8246    0.0041 H        1 ZINC000001530775    0.4300
31     H31    -0.8625    1.8017    0.0159 H        1 ZINC000001530775    0.4500
32     H32    -2.3494    0.7514    1.0925 H        1 ZINC000001530775    0.1500
33     H33    -4.4578   -0.5107    1.1025 H        1 ZINC000001530775    0.1600
34     H34    -4.5475   -4.0328   -1.6557 H        1 ZINC000001530775    0.0700
35     H35    -4.0814   -4.7988   -0.1181 H        1 ZINC000001530775    0.0700
36     H36    -6.4657   -4.8974    0.5556 H        1 ZINC000001530775    0.0800
37     H37    -6.9318   -4.1314   -0.9820 H        1 ZINC000001530775    0.0800
38     H38    -5.9360   -6.0291   -2.2293 H        1 ZINC000001530775    0.0700
39     H39    -5.4699   -6.7951   -0.6917 H        1 ZINC000001530775    0.0700
40     H40    -7.8543   -6.8937   -0.0180 H        1 ZINC000001530775    0.0800
41     H41    -8.3204   -6.1276   -1.5556 H        1 ZINC000001530775    0.0800
42     H42    -7.3246   -8.0254   -2.8029 H        1 ZINC000001530775    0.0700
43     H43    -6.8585   -8.7914   -1.2653 H        1 ZINC000001530775    0.0700
44     H44    -7.0264  -10.0954   -2.8828 H        1 ZINC000001530775    0.1500
45     H45    -7.3269  -12.3134   -3.8970 H        1 ZINC000001530775    0.1400
46     H46   -11.0069  -14.3791   -2.6757 H        1 ZINC000001530775    0.4500
47     H47   -10.5993  -15.5134   -3.8461 H        1 ZINC000001530775    0.4300
48     H48   -11.4374  -12.3058   -2.6692 H        1 ZINC000001530775    0.1500
49     H49   -11.1234  -10.0900   -1.6540 H        1 ZINC000001530775    0.1600
50     H50    -2.5772   -3.6911   -1.0526 H        1 ZINC000001530775    0.1500
51     H51    -0.4652   -2.4350   -1.0756 H        1 ZINC000001530775    0.1400
@<TRIPOS>BOND
1     1     2     ar
2     1     30    1
3     1     31    1
4     2     3     ar
5     2     6     1
6     3     4     1
7     3     5     1
8     6     29    ar
9     6     7     ar
10    7     8     ar
11    7     32    1
12    8     9     ar
13    8     33    1
14    9     10    1
15    9     28    ar
16    10    11    1
17    11    12    1
18    11    34    1
19    11    35    1
20    12    13    1
21    12    36    1
22    12    37    1
23    13    14    1
24    13    38    1
25    13    39    1
26    14    15    1
27    14    40    1
28    14    41    1
29    15    16    1
30    15    42    1
31    15    43    1
32    16    17    1
33    17    27    ar
34    17    18    ar
35    18    19    ar
36    18    44    1
37    19    20    ar
38    19    45    1
39    20    21    1
40    20    26    ar
41    21    22    ar
42    21    23    ar
43    22    46    1
44    22    47    1
45    23    24    1
46    23    25    1
47    26    27    ar
48    26    48    1
49    27    49    1
50    28    29    ar
51    28    50    1
52    29    51    1
@<TRIPOS>SUBSTRUCTURE
1   ZINC000001530775 1     RESIDUE    1   A     ZIN   1
