@<TRIPOS>MOLECULE
ZINC000003787097
48    51    1     0     0
SMALL
USER_CHARGES
@<TRIPOS>ATOM
1      N1      4.3634    4.6383    5.0019 N.4      1 ZINC000003787097   -0.6400
2      H2      4.9651    4.0404    5.5483 H        1 ZINC000003787097    0.4400
3      H3      3.8621    5.2626    5.6160 H        1 ZINC000003787097    0.4300
4      H4      4.9211    5.1774    4.3566 H        1 ZINC000003787097    0.4400
5      C5      3.4052    3.8152    4.2520 C.3      1 ZINC000003787097    0.0400
6      H6      3.9538    3.1439    3.5912 H        1 ZINC000003787097    0.1500
7      C7      2.5059    4.7384    3.3997 C.3      1 ZINC000003787097   -0.1300
8      C8      1.8414    3.9163    2.3289 C.3      1 ZINC000003787097   -0.1100
9      C9      0.4606    3.3742    2.7536 C.3      1 ZINC000003787097   -0.1100
10     C10     0.4561    2.8604    4.2061 C.3      1 ZINC000003787097    0.0500
11     N11     1.6561    2.1245    4.5223 N.3      1 ZINC000003787097   -0.4600
12     C12     1.3678    1.0175    5.3182 C.ar     1 ZINC000003787097    0.1000
13     C13     0.8378    1.2029    6.5971 C.ar     1 ZINC000003787097    0.0200
14     F14     0.6079    2.4530    7.0549 F        1 ZINC000003787097   -0.1400
15     C15     0.5504    0.1258    7.3874 C.ar     1 ZINC000003787097   -0.0400
16     C16     0.7879   -1.1665    6.9135 C.ar     1 ZINC000003787097   -0.1600
17     C17     0.4877   -2.3464    7.7418 C.2      1 ZINC000003787097    0.4100
18     O18     0.0241   -2.2336    8.8633 O.2      1 ZINC000003787097   -0.4300
19     C19     0.7708   -3.6690    7.1579 C.2      1 ZINC000003787097   -0.2800
20     C20     0.4994   -4.8930    7.9184 C.2      1 ZINC000003787097    0.5300
21     O21     0.7385   -5.9868    7.4235 O.co2    1 ZINC000003787097   -0.6900
22     O22     0.0337   -4.8210    9.0482 O.co2    1 ZINC000003787097   -0.6600
23     C23     1.2960   -3.7371    5.8816 C.2      1 ZINC000003787097    0.1500
24     N24     1.5561   -2.6412    5.1590 N.pl3    1 ZINC000003787097   -0.4600
25     C25     2.1126   -2.8040    3.8136 C.3      1 ZINC000003787097    0.0300
26     C26     1.9279   -4.1613    3.1321 C.3      1 ZINC000003787097   -0.1800
27     C27     1.1256   -2.9496    2.6537 C.3      1 ZINC000003787097   -0.1700
28     C28     1.3215   -1.3645    5.6268 C.ar     1 ZINC000003787097    0.2200
29     C29     1.6041   -0.2593    4.8321 C.ar     1 ZINC000003787097   -0.0400
30     Cl30    2.2568   -0.4771    3.2383 Cl       1 ZINC000003787097   -0.0200
31     C31     2.6206    3.0224    5.1918 C.3      1 ZINC000003787097    0.0100
32     H32     1.7460    5.1949    4.0339 H        1 ZINC000003787097    0.0900
33     H33     3.1143    5.5161    2.9381 H        1 ZINC000003787097    0.0900
34     H34     1.7173    4.5335    1.4392 H        1 ZINC000003787097    0.0800
35     H35     2.4878    3.0742    2.0814 H        1 ZINC000003787097    0.0800
36     H36    -0.2765    4.1715    2.6585 H        1 ZINC000003787097    0.0700
37     H37     0.1821    2.5567    2.0887 H        1 ZINC000003787097    0.0800
38     H38     0.3732    3.7110    4.8827 H        1 ZINC000003787097    0.0600
39     H39    -0.4067    2.2100    4.3493 H        1 ZINC000003787097    0.0800
40     H40     0.1410    0.2734    8.3758 H        1 ZINC000003787097    0.1600
41     H41     1.5036   -4.7065    5.4533 H        1 ZINC000003787097    0.1800
42     H42     3.0404   -2.2656    3.6204 H        1 ZINC000003787097    0.1500
43     H43     2.7343   -4.5162    2.4905 H        1 ZINC000003787097    0.1100
44     H44     1.3922   -4.9332    3.6848 H        1 ZINC000003787097    0.1100
45     H45     0.0622   -2.9242    2.8915 H        1 ZINC000003787097    0.1000
46     H46     1.4043   -2.5073    1.6972 H        1 ZINC000003787097    0.1000
47     H47     3.3006    2.4205    5.7946 H        1 ZINC000003787097    0.1000
48     H48     2.0736    3.6965    5.8510 H        1 ZINC000003787097    0.0800
@<TRIPOS>BOND
1     1     2     1
2     1     3     1
3     1     4     1
4     1     5     1
5     5     6     1
6     5     31    1
7     5     7     1
8     7     8     1
9     7     32    1
10    7     33    1
11    8     9     1
12    8     34    1
13    8     35    1
14    9     10    1
15    9     36    1
16    9     37    1
17    10    11    1
18    10    38    1
19    10    39    1
20    11    12    1
21    11    31    1
22    12    29    ar
23    12    13    ar
24    13    14    1
25    13    15    ar
26    15    16    ar
27    15    40    1
28    16    28    ar
29    16    17    1
30    17    18    2
31    17    19    1
32    19    20    1
33    19    23    2
34    20    21    ar
35    20    22    ar
36    23    24    1
37    23    41    1
38    24    25    1
39    24    28    1
40    25    27    1
41    25    26    1
42    25    42    1
43    26    27    1
44    26    43    1
45    26    44    1
46    27    45    1
47    27    46    1
48    28    29    ar
49    29    30    1
50    31    47    1
51    31    48    1
@<TRIPOS>SUBSTRUCTURE
1   ZINC000003787097 1     RESIDUE    1   A     ZIN   1
