@<TRIPOS>MOLECULE
ZINC000000896523
47    47    1     0     0
SMALL
USER_CHARGES
@<TRIPOS>ATOM
1      C1     -0.0176    1.4478    0.0100 C.3      1 ZINC000000896523    0.0300
2      O2      0.0021   -0.0041    0.0020 O.3      1 ZINC000000896523   -0.3600
3      C3     -1.1855   -0.6297    0.0100 C.2      1 ZINC000000896523    0.4600
4      O4     -2.2076    0.0145    0.0232 O.2      1 ZINC000000896523   -0.5100
5      C5     -1.2439   -2.1355    0.0025 C.3      1 ZINC000000896523   -0.1100
6      C6     -2.7051   -2.5893    0.0140 C.3      1 ZINC000000896523   -0.0700
7      C7     -2.7635   -4.0951    0.0065 C.ar     1 ZINC000000896523   -0.1100
8      C8     -2.7960   -4.7785   -1.1951 C.ar     1 ZINC000000896523   -0.0700
9      C9     -2.8495   -6.1589   -1.2047 C.ar     1 ZINC000000896523   -0.1400
10     C10    -2.8704   -6.8594   -0.0074 C.ar     1 ZINC000000896523    0.1200
11     O11    -2.9226   -8.2174   -0.0142 O.3      1 ZINC000000896523   -0.3000
12     C12    -2.9413   -8.8723    1.2558 C.3      1 ZINC000000896523    0.0300
13     C13    -3.0006  -10.3869    1.0477 C.3      1 ZINC000000896523    0.0900
14     H14    -3.8558  -10.6340    0.4187 H        1 ZINC000000896523    0.1400
15     O15    -1.7989  -10.8279    0.4126 O.3      1 ZINC000000896523   -0.5400
16     C16    -3.1462  -11.0825    2.4027 C.3      1 ZINC000000896523   -0.0500
17     N17    -3.2032  -12.5367    2.2029 N.4      1 ZINC000000896523   -0.5000
18     H18    -3.9948  -12.7655    1.6206 H        1 ZINC000000896523    0.4300
19     H19    -2.3546  -12.8481    1.7545 H        1 ZINC000000896523    0.4300
20     C20    -3.3430  -13.2046    3.5038 C.3      1 ZINC000000896523    0.0200
21     C21    -3.5274  -14.7080    3.2881 C.3      1 ZINC000000896523   -0.1900
22     C22    -2.0856  -12.9599    4.3405 C.3      1 ZINC000000896523   -0.1900
23     C23    -2.8373   -6.1714    1.1968 C.ar     1 ZINC000000896523   -0.2100
24     C24    -2.7788   -4.7912    1.2010 C.ar     1 ZINC000000896523   -0.0700
25     H25     1.0050    1.8251    0.0023 H        1 ZINC000000896523    0.1000
26     H26    -0.5448    1.8089   -0.8731 H        1 ZINC000000896523    0.0700
27     H27    -0.5278    1.7993    0.9068 H        1 ZINC000000896523    0.0600
28     H28    -0.7531   -2.5137   -0.8943 H        1 ZINC000000896523    0.1100
29     H29    -0.7361   -2.5233    0.8856 H        1 ZINC000000896523    0.1100
30     H30    -3.1959   -2.2111    0.9107 H        1 ZINC000000896523    0.0800
31     H31    -3.2129   -2.2015   -0.8691 H        1 ZINC000000896523    0.0900
32     H32    -2.7797   -4.2327   -2.1268 H        1 ZINC000000896523    0.1400
33     H33    -2.8756   -6.6922   -2.1434 H        1 ZINC000000896523    0.1300
34     H34    -2.0380   -8.6167    1.8097 H        1 ZINC000000896523    0.0800
35     H35    -3.8166   -8.5483    1.8188 H        1 ZINC000000896523    0.0800
36     H36    -0.9956  -10.6405    0.9174 H        1 ZINC000000896523    0.3900
37     H37    -2.2911  -10.8354    3.0317 H        1 ZINC000000896523    0.1400
38     H38    -4.0629  -10.7461    2.8871 H        1 ZINC000000896523    0.1500
39     H39    -4.2111  -12.8034    4.0268 H        1 ZINC000000896523    0.1400
40     H40    -2.6593  -15.1092    2.7651 H        1 ZINC000000896523    0.0800
41     H41    -3.6312  -15.2036    4.2534 H        1 ZINC000000896523    0.1100
42     H42    -4.4232  -14.8824    2.6920 H        1 ZINC000000896523    0.0800
43     H43    -1.9542  -11.8888    4.4942 H        1 ZINC000000896523    0.0800
44     H44    -2.1894  -13.4554    5.3058 H        1 ZINC000000896523    0.1100
45     H45    -1.2175  -13.3611    3.8176 H        1 ZINC000000896523    0.0800
46     H46    -2.8537   -6.7145    2.1302 H        1 ZINC000000896523    0.1200
47     H47    -2.7527   -4.2551    2.1382 H        1 ZINC000000896523    0.1300
@<TRIPOS>BOND
1     1     2     1
2     1     25    1
3     1     26    1
4     1     27    1
5     2     3     1
6     3     4     2
7     3     5     1
8     5     6     1
9     5     28    1
10    5     29    1
11    6     7     1
12    6     30    1
13    6     31    1
14    7     24    ar
15    7     8     ar
16    8     9     ar
17    8     32    1
18    9     10    ar
19    9     33    1
20    10    11    1
21    10    23    ar
22    11    12    1
23    12    13    1
24    12    34    1
25    12    35    1
26    13    14    1
27    13    15    1
28    13    16    1
29    15    36    1
30    16    17    1
31    16    37    1
32    16    38    1
33    17    18    1
34    17    19    1
35    17    20    1
36    20    21    1
37    20    22    1
38    20    39    1
39    21    40    1
40    21    41    1
41    21    42    1
42    22    43    1
43    22    44    1
44    22    45    1
45    23    24    ar
46    23    46    1
47    24    47    1
@<TRIPOS>SUBSTRUCTURE
1   ZINC000000896523 1     RESIDUE    1   A     ZIN   1
