@<TRIPOS>MOLECULE
ZINC000005844788
54    57    1     0     0
SMALL
USER_CHARGES
@<TRIPOS>ATOM
1      O1     -0.0173    1.4248    0.0099 O.3      1 ZINC000005844788   -0.5500
2      C2      0.0021   -0.0041    0.0020 C.3      1 ZINC000005844788    0.1200
3      H3     -1.0205   -0.3814    0.0098 H        1 ZINC000005844788    0.1300
4      C4      0.7421   -0.5109    1.2415 C.3      1 ZINC000005844788    0.0300
5      N5     -0.0103   -0.1391    2.4472 N.3      1 ZINC000005844788   -0.6800
6      C6      0.6719   -0.6104    3.6598 C.3      1 ZINC000005844788    0.0300
7      C7     -0.1398   -0.2053    4.8918 C.3      1 ZINC000005844788    0.1200
8      H8     -1.1323   -0.6525    4.8362 H        1 ZINC000005844788    0.1300
9      O9     -0.2605    1.2179    4.9358 O.3      1 ZINC000005844788   -0.5500
10     C10     0.5708   -0.6962    6.1547 C.3      1 ZINC000005844788    0.0600
11     H11     0.5860   -1.7860    6.1672 H        1 ZINC000005844788    0.0800
12     C12    -0.1642   -0.1755    7.3965 C.3      1 ZINC000005844788   -0.1500
13     C13     0.5041   -0.7739    8.6368 C.3      1 ZINC000005844788   -0.0800
14     C14     1.9992   -0.6053    8.5391 C.ar     1 ZINC000005844788   -0.1300
15     C15     2.7595   -0.7269    9.6901 C.ar     1 ZINC000005844788   -0.1200
16     C16     4.1342   -0.5826    9.6368 C.ar     1 ZINC000005844788    0.0700
17     F17     4.8708   -0.7018   10.7630 F        1 ZINC000005844788   -0.1400
18     C18     4.7543   -0.3154    8.4283 C.ar     1 ZINC000005844788   -0.1200
19     C19     3.9995   -0.1915    7.2795 C.ar     1 ZINC000005844788   -0.1200
20     C20     2.6170   -0.3345    7.3307 C.ar     1 ZINC000005844788    0.1200
21     O21     1.9084   -0.1962    6.1792 O.3      1 ZINC000005844788   -0.3100
22     C22     0.7182   -0.4975   -1.2568 C.3      1 ZINC000005844788    0.0600
23     H23     0.6576   -1.5844   -1.3113 H        1 ZINC000005844788    0.0800
24     C24     0.0631    0.1194   -2.4992 C.3      1 ZINC000005844788   -0.1500
25     C25     0.7289   -0.4789   -3.7409 C.3      1 ZINC000005844788   -0.0800
26     C26     2.2280   -0.4208   -3.5911 C.ar     1 ZINC000005844788   -0.1300
27     C27     3.0158   -0.5537   -4.7221 C.ar     1 ZINC000005844788   -0.1200
28     C28     4.3947   -0.5095   -4.6212 C.ar     1 ZINC000005844788    0.0700
29     F29     5.1583   -0.6402   -5.7280 F        1 ZINC000005844788   -0.1400
30     C30     4.9915   -0.3317   -3.3848 C.ar     1 ZINC000005844788   -0.1200
31     C31     4.2094   -0.1968   -2.2556 C.ar     1 ZINC000005844788   -0.1200
32     C32     2.8227   -0.2391   -2.3547 C.ar     1 ZINC000005844788    0.1200
33     O33     2.0876   -0.0933   -1.2208 O.3      1 ZINC000005844788   -0.3100
34     H34     0.8606    1.8301    0.0037 H        1 ZINC000005844788    0.3800
35     H35     0.8346   -1.5958    1.1912 H        1 ZINC000005844788    0.0800
36     H36     1.7350   -0.0630    1.2804 H        1 ZINC000005844788    0.0400
37     H37    -0.1655    0.8573    2.4837 H        1 ZINC000005844788    0.3600
38     H38     0.7639   -1.6960    3.6262 H        1 ZINC000005844788    0.0800
39     H39     1.6644   -0.1632    3.7154 H        1 ZINC000005844788    0.0400
40     H40     0.5858    1.6830    4.9861 H        1 ZINC000005844788    0.3800
41     H41    -0.0993    0.9119    7.4328 H        1 ZINC000005844788    0.0900
42     H42    -1.2100   -0.4807    7.3594 H        1 ZINC000005844788    0.0900
43     H43     0.1389   -0.2630    9.5277 H        1 ZINC000005844788    0.0900
44     H44     0.2622   -1.8347    8.7030 H        1 ZINC000005844788    0.0800
45     H45     2.2770   -0.9357   10.6335 H        1 ZINC000005844788    0.1400
46     H46     5.8276   -0.2036    8.3845 H        1 ZINC000005844788    0.1400
47     H47     4.4843    0.0168    6.3371 H        1 ZINC000005844788    0.1400
48     H48    -1.0020   -0.1118   -2.5060 H        1 ZINC000005844788    0.0900
49     H49     0.2050    1.2001   -2.4910 H        1 ZINC000005844788    0.0900
50     H50     0.4158   -1.5167   -3.8558 H        1 ZINC000005844788    0.0800
51     H51     0.4301    0.0890   -4.6219 H        1 ZINC000005844788    0.0900
52     H52     2.5516   -0.6928   -5.6872 H        1 ZINC000005844788    0.1400
53     H53     6.0679   -0.2990   -3.3038 H        1 ZINC000005844788    0.1400
54     H54     4.6759   -0.0583   -1.2915 H        1 ZINC000005844788    0.1400
@<TRIPOS>BOND
1     1     2     1
2     1     34    1
3     2     3     1
4     2     4     1
5     2     22    1
6     4     5     1
7     4     35    1
8     4     36    1
9     5     6     1
10    5     37    1
11    6     7     1
12    6     38    1
13    6     39    1
14    7     8     1
15    7     9     1
16    7     10    1
17    9     40    1
18    10    11    1
19    10    21    1
20    10    12    1
21    12    13    1
22    12    41    1
23    12    42    1
24    13    14    1
25    13    43    1
26    13    44    1
27    14    20    ar
28    14    15    ar
29    15    16    ar
30    15    45    1
31    16    17    1
32    16    18    ar
33    18    19    ar
34    18    46    1
35    19    20    ar
36    19    47    1
37    20    21    1
38    22    23    1
39    22    33    1
40    22    24    1
41    24    25    1
42    24    48    1
43    24    49    1
44    25    26    1
45    25    50    1
46    25    51    1
47    26    32    ar
48    26    27    ar
49    27    28    ar
50    27    52    1
51    28    29    1
52    28    30    ar
53    30    31    ar
54    30    53    1
55    31    32    ar
56    31    54    1
57    32    33    1
@<TRIPOS>SUBSTRUCTURE
1   ZINC000005844788 1     RESIDUE    1   A     ZIN   1
