@<TRIPOS>MOLECULE
ZINC000003830579
52   55    0    0    0
SMALL
USER_CHARGES
NO_NAME
@<TRIPOS>ATOM
1 C1        1.3866     0.2259     1.0742 C.3    1 <0>      -0.0500
2 N2        1.0713    -1.2074     1.1385 N.4    1 <0>      -0.2600
3 C3        1.9333    -1.9147     0.1886 C.3    1 <0>      -0.0100
4 C4        1.6295    -3.4142     0.2212 C.3    1 <0>      -0.1400
5 C5        0.5166    -3.6715     1.2457 C.3    1 <0>      -0.1000
6 C6        0.9926    -3.1667     2.6142 C.3    1 <0>      -0.1400
7 C7        1.3169    -1.6752     2.5048 C.3    1 <0>      -0.0100
8 C8       -0.7179    -2.8592     0.8329 C.3    1 <0>       0.0700
9 H9       -1.0569    -3.1842    -0.1507 H      1 <0>       0.1200
10 O10      -1.7789    -3.0591     1.8038 O.3    1 <0>      -0.3300
11 C11      -3.0406    -2.9765     1.3534 C.2    1 <0>       0.4500
12 O12      -3.2516    -2.7448     0.1864 O.2    1 <0>      -0.4700
13 C13      -4.1941    -3.1727     2.3031 C.3    1 <0>       0.2500
14 O14      -3.8442    -4.1539     3.2813 O.3    1 <0>      -0.5200
15 C15      -4.5070    -1.8682     2.9897 C.ar   1 <0>      -0.0900
16 C16      -4.4715    -0.6853     2.2754 C.ar   1 <0>      -0.1200
17 C17      -4.7585     0.5113     2.9052 C.ar   1 <0>      -0.1200
18 C18      -5.0814     0.5250     4.2492 C.ar   1 <0>      -0.1000
19 C19      -5.1177    -0.6581     4.9634 C.ar   1 <0>      -0.1200
20 C20      -4.8349    -1.8552     4.3325 C.ar   1 <0>      -0.0800
21 C21      -5.4039    -3.6387     1.5346 C.ar   1 <0>      -0.1300
22 C22      -5.9208    -4.9011     1.7584 C.ar   1 <0>      -0.1000
23 C23      -7.0304    -5.3285     1.0535 C.ar   1 <0>      -0.1200
24 C24      -7.6234    -4.4933     0.1252 C.ar   1 <0>      -0.1000
25 C25      -7.1071    -3.2306    -0.0979 C.ar   1 <0>      -0.1200
26 C26      -6.0000    -2.8016     0.6101 C.ar   1 <0>      -0.0800
27 C27      -0.3364    -1.3890     0.7765 C.3    1 <0>      -0.0200
28 H28       2.4329     0.3799     1.3383 H      1 <0>       0.1300
29 H29       1.2094     0.5919     0.0629 H      1 <0>       0.1200
30 H30       0.7515     0.7694     1.7738 H      1 <0>       0.1200
31 H31       1.7553    -1.5314    -0.8161 H      1 <0>       0.1300
32 H32       2.9772    -1.7513     0.4566 H      1 <0>       0.1300
33 H33       1.3009    -3.7418    -0.7651 H      1 <0>       0.1000
34 H34       2.5261    -3.9624     0.5104 H      1 <0>       0.1100
35 H35       0.2871    -4.7360     1.2947 H      1 <0>       0.1300
36 H36       0.2050    -3.3161     3.3528 H      1 <0>       0.1100
37 H37       1.8862    -3.7138     2.9147 H      1 <0>       0.1000
38 H38       2.3642    -1.5131     2.7598 H      1 <0>       0.1300
39 H39       0.6871    -1.1164     3.1971 H      1 <0>       0.1300
40 H40      -3.6298    -5.0206     2.9098 H      1 <0>       0.3900
41 H41      -4.2193    -0.6959     1.2253 H      1 <0>       0.1200
42 H42      -4.7301     1.4356     2.3473 H      1 <0>       0.1300
43 H43      -5.3049     1.4599     4.7415 H      1 <0>       0.1300
44 H44      -5.3696    -0.6474     6.0135 H      1 <0>       0.1300
45 H45      -4.8633    -2.7795     4.8905 H      1 <0>       0.1400
46 H46      -5.4574    -5.5535     2.4836 H      1 <0>       0.1300
47 H47      -7.4338    -6.3150     1.2278 H      1 <0>       0.1300
48 H48      -8.4900    -4.8275    -0.4261 H      1 <0>       0.1300
49 H49      -7.5702    -2.5782    -0.8234 H      1 <0>       0.1300
50 H50      -5.5966    -1.8150     0.4358 H      1 <0>       0.1200
51 H51      -0.9538    -0.8280     1.4781 H      1 <0>       0.1300
52 H52      -0.5030    -1.0105    -0.2320 H      1 <0>       0.1400
@<TRIPOS>BOND
1    1    2 1
2    1   28 1
3    1   29 1
4    1   30 1
5    2    7 1
6    2   27 1
7    2    3 1
8    3    4 1
9    3   31 1
10    3   32 1
11    4    5 1
12    4   33 1
13    4   34 1
14    5    6 1
15    5    8 1
16    5   35 1
17    6    7 1
18    6   36 1
19    6   37 1
20    7   38 1
21    7   39 1
22    8    9 1
23    8   10 1
24    8   27 1
25   10   11 1
26   11   12 2
27   11   13 1
28   13   14 1
29   13   15 1
30   13   21 1
31   14   40 1
32   15   20 ar
33   15   16 ar
34   16   17 ar
35   16   41 1
36   17   18 ar
37   17   42 1
38   18   19 ar
39   18   43 1
40   19   20 ar
41   19   44 1
42   20   45 1
43   21   26 ar
44   21   22 ar
45   22   23 ar
46   22   46 1
47   23   24 ar
48   23   47 1
49   24   25 ar
50   24   48 1
51   25   26 ar
52   25   49 1
53   26   50 1
54   27   51 1
55   27   52 1
