@<TRIPOS>MOLECULE
ZINC000002539702
22   22    0    0    0
SMALL
USER_CHARGES
NO_NAME
@<TRIPOS>ATOM
1 O1        0.0021    -0.0041     0.0020 O.2    1 <0>      -0.4300
2 C2       -0.0143     1.2041     0.0087 C.2    1 <0>       0.4500
3 O3       -1.1807     1.8823     0.0291 O.3    1 <0>      -0.3500
4 C4       -1.2932     2.9115     1.0519 C.3    1 <0>       0.1100
5 H5       -1.3055     2.4459     2.0373 H      1 <0>       0.1000
6 C6       -2.5875     3.7004     0.8431 C.3    1 <0>       0.0900
7 O7       -3.7089     2.8390     1.0493 O.3    1 <0>      -0.5700
8 C8       -0.0936     3.8574     0.9478 C.3    1 <0>       0.0900
9 H9       -0.1009     4.3483    -0.0254 H      1 <0>       0.0900
10 O10      -0.1726     4.8429     1.9795 O.3    1 <0>      -0.5400
11 C11       1.2013     3.0544     1.1055 C.3    1 <0>       0.0900
12 H12       1.2087     2.5612     2.0775 H      1 <0>       0.0800
13 O13       2.3239     3.9329     1.0063 O.3    1 <0>      -0.5500
14 C14       1.2723     1.9998     0.0007 C.3    1 <0>       0.0300
15 H15       1.3884     2.4887    -0.9666 H      1 <0>       0.1100
16 O16       2.3813     1.1299     0.2363 O.3    1 <0>      -0.5400
17 H17      -2.6282     4.5262     1.5533 H      1 <0>       0.0900
18 H18      -2.6134     4.0935    -0.1732 H      1 <0>       0.0600
19 H19      -4.5650     3.2733     0.9331 H      1 <0>       0.3900
20 H20       0.5571     5.4775     1.9740 H      1 <0>       0.4000
21 H21       3.1789     3.4904     1.0973 H      1 <0>       0.4000
22 H22       2.4849     0.4357    -0.4289 H      1 <0>       0.4000
@<TRIPOS>BOND
1    1    2 2
2    2   14 1
3    2    3 1
4    3    4 1
5    4    5 1
6    4    6 1
7    4    8 1
8    6    7 1
9    6   17 1
10    6   18 1
11    7   19 1
12    8    9 1
13    8   10 1
14    8   11 1
15   10   20 1
16   11   12 1
17   11   13 1
18   11   14 1
19   13   21 1
20   14   15 1
21   14   16 1
22   16   22 1
