@<TRIPOS>MOLECULE
ZINC000053229445
91    96    1     0     0
SMALL
USER_CHARGES
@<TRIPOS>ATOM
1      C1     -0.0866    0.6320    1.4359 C.2      1 ZINC000053229445   -0.1200
2      C2     -0.2293   -0.6390    1.7191 C.2      1 ZINC000053229445   -0.2200
3      C3     -1.5080   -1.3518    1.3612 C.3      1 ZINC000053229445    0.0000
4      N4     -1.1984   -2.5306    0.5412 N.4      1 ZINC000053229445   -0.2500
5      C5     -2.4453   -3.1901    0.1309 C.3      1 ZINC000053229445    0.0200
6      H6     -2.2221   -4.1261   -0.3812 H        1 ZINC000053229445    0.1400
7      C7     -3.3383   -3.4614    1.3724 C.3      1 ZINC000053229445   -0.1400
8      C8     -4.7534   -3.2164    0.8375 C.3      1 ZINC000053229445   -0.0800
9      H9     -5.0767   -4.0546    0.2203 H        1 ZINC000053229445    0.0900
10     C10    -5.8074   -2.8902    1.8785 C.3      1 ZINC000053229445   -0.0700
11     H11    -5.5088   -2.0045    2.4393 H        1 ZINC000053229445    0.0900
12     C12    -5.9943   -4.0682    2.8356 C.3      1 ZINC000053229445   -0.1100
13     C13    -7.0907   -3.7305    3.8481 C.3      1 ZINC000053229445   -0.1200
14     C14    -8.4037   -3.4622    3.1103 C.3      1 ZINC000053229445   -0.0700
15     H15    -8.6943   -4.3516    2.5512 H        1 ZINC000053229445    0.0700
16     C16    -9.4967   -3.1178    4.1242 C.3      1 ZINC000053229445   -0.1400
17     C17   -10.8111   -2.8528    3.3871 C.3      1 ZINC000053229445    0.1100
18     H18   -11.5896   -2.6073    4.1094 H        1 ZINC000053229445    0.0600
19     O19   -11.1908   -4.0203    2.6557 O.3      1 ZINC000053229445   -0.5600
20     C20   -10.6258   -1.6824    2.4193 C.3      1 ZINC000053229445    0.0900
21     H21   -11.5621   -1.4938    1.8939 H        1 ZINC000053229445    0.0500
22     N22   -10.2359   -0.4823    3.1713 N.3      1 ZINC000053229445   -0.5100
23     C23   -11.1128   -0.2811    4.3340 C.3      1 ZINC000053229445    0.0000
24     C24   -10.6355    0.9426    5.1206 C.3      1 ZINC000053229445    0.0700
25     O25   -10.6144    2.0809    4.2551 O.3      1 ZINC000053229445   -0.3800
26     C26    -9.7697    1.9196    3.1124 C.3      1 ZINC000053229445    0.0600
27     C27   -10.2381    0.7058    2.3054 C.3      1 ZINC000053229445    0.0100
28     C28    -9.5327   -2.0266    1.4056 C.3      1 ZINC000053229445   -0.1000
29     C29    -8.2187   -2.2905    2.1440 C.3      1 ZINC000053229445   -0.0300
30     C30    -7.8141   -1.0403    2.9277 C.3      1 ZINC000053229445   -0.1500
31     C31    -7.1196   -2.6115    1.1289 C.3      1 ZINC000053229445   -0.0700
32     H32    -7.3961   -3.5135    0.5830 H        1 ZINC000053229445    0.0700
33     C33    -6.9718   -1.4608    0.1392 C.3      1 ZINC000053229445   -0.1200
34     C34    -5.8081   -1.7051   -0.8361 C.3      1 ZINC000053229445   -0.1000
35     C35    -4.5443   -1.9485   -0.0343 C.3      1 ZINC000053229445   -0.0700
36     C36    -4.3110   -0.7834    0.9296 C.3      1 ZINC000053229445   -0.1700
37     C37    -3.2596   -2.2563   -0.7988 C.3      1 ZINC000053229445    0.0800
38     H38    -3.4921   -2.7294   -1.7528 H        1 ZINC000053229445    0.1300
39     O39    -2.4984   -1.0387   -1.0143 O.3      1 ZINC000053229445   -0.3700
40     C40    -2.1099   -0.7775   -2.2723 C.2      1 ZINC000053229445    0.4500
41     C41    -1.3163    0.4680   -2.5725 C.3      1 ZINC000053229445   -0.1600
42     O42    -2.3963   -1.5410   -3.1639 O.2      1 ZINC000053229445   -0.4800
43     C43    -0.4396   -2.1170   -0.6584 C.3      1 ZINC000053229445   -0.0200
44     C44     1.0471   -2.3309   -0.2794 C.3      1 ZINC000053229445   -0.1400
45     C45     0.9703   -3.6258    0.5716 C.3      1 ZINC000053229445   -0.1400
46     C46    -0.3715   -3.4722    1.3182 C.3      1 ZINC000053229445   -0.0200
47     H47     0.8297    1.1429    1.6924 H        1 ZINC000053229445    0.1200
48     H48    -0.8835    1.1680    0.9419 H        1 ZINC000053229445    0.1100
49     H49     0.5693   -1.1760    2.2091 H        1 ZINC000053229445    0.1300
50     H50    -2.0159   -1.6665    2.2728 H        1 ZINC000053229445    0.1300
51     H51    -2.1545   -0.6779    0.7991 H        1 ZINC000053229445    0.1600
52     H52    -3.2267   -4.4918    1.7099 H        1 ZINC000053229445    0.1000
53     H53    -3.1036   -2.7636    2.1762 H        1 ZINC000053229445    0.1000
54     H54    -6.2822   -4.9543    2.2698 H        1 ZINC000053229445    0.0600
55     H55    -5.0596   -4.2606    3.3623 H        1 ZINC000053229445    0.0600
56     H56    -7.2235   -4.5683    4.5326 H        1 ZINC000053229445    0.0600
57     H57    -6.8033   -2.8431    4.4121 H        1 ZINC000053229445    0.0700
58     H58    -9.6285   -3.9517    4.8136 H        1 ZINC000053229445    0.0600
59     H59    -9.2071   -2.2274    4.6821 H        1 ZINC000053229445    0.0900
60     H60   -11.3256   -4.8032    3.2070 H        1 ZINC000053229445    0.3800
61     H61   -12.1359   -0.1193    3.9947 H        1 ZINC000053229445    0.0500
62     H62   -11.0761   -1.1624    4.9744 H        1 ZINC000053229445    0.0900
63     H63   -11.3162    1.1295    5.9512 H        1 ZINC000053229445    0.1000
64     H64    -9.6324    0.7593    5.5055 H        1 ZINC000053229445    0.0600
65     H65    -9.8241    2.8131    2.4905 H        1 ZINC000053229445    0.1000
66     H66    -8.7413    1.7647    3.4389 H        1 ZINC000053229445    0.0600
67     H67    -9.5630    0.5449    1.4649 H        1 ZINC000053229445    0.0900
68     H68   -11.2473    0.8834    1.9336 H        1 ZINC000053229445    0.0500
69     H69    -9.8219   -2.9171    0.8476 H        1 ZINC000053229445    0.0700
70     H70    -9.4009   -1.1927    0.7162 H        1 ZINC000053229445    0.0600
71     H71    -8.4770   -0.9181    3.7843 H        1 ZINC000053229445    0.1000
72     H72    -6.7866   -1.1462    3.2756 H        1 ZINC000053229445    0.0300
73     H73    -7.8906   -0.1658    2.2814 H        1 ZINC000053229445    0.0500
74     H74    -7.8968   -1.3576   -0.4282 H        1 ZINC000053229445    0.0700
75     H75    -6.7878   -0.5383    0.6899 H        1 ZINC000053229445    0.0700
76     H76    -6.0007   -2.6012   -1.4261 H        1 ZINC000053229445    0.0700
77     H77    -5.6895   -0.8448   -1.4947 H        1 ZINC000053229445    0.0700
78     H78    -5.2458   -0.5346    1.4320 H        1 ZINC000053229445    0.0900
79     H79    -3.5649   -1.0692    1.6711 H        1 ZINC000053229445    0.0600
80     H80    -3.9560    0.0836    0.3725 H        1 ZINC000053229445    0.0700
81     H81    -0.2519    0.2511   -2.4826 H        1 ZINC000053229445    0.1100
82     H82    -1.5346    0.8021   -3.5868 H        1 ZINC000053229445    0.1200
83     H83    -1.5885    1.2515   -1.8654 H        1 ZINC000053229445    0.1000
84     H84    -0.7075   -2.7413   -1.5108 H        1 ZINC000053229445    0.1200
85     H85    -0.6268   -1.0668   -0.8823 H        1 ZINC000053229445    0.1400
86     H86     1.6586   -2.4837   -1.1686 H        1 ZINC000053229445    0.1100
87     H87     1.4231   -1.4964    0.3126 H        1 ZINC000053229445    0.1000
88     H88     0.9562   -4.5076   -0.0690 H        1 ZINC000053229445    0.1000
89     H89     1.8003   -3.6735    1.2765 H        1 ZINC000053229445    0.1100
90     H90    -0.1962   -3.0742    2.3177 H        1 ZINC000053229445    0.1300
91     H91    -0.8720   -4.4383    1.3838 H        1 ZINC000053229445    0.1300
@<TRIPOS>BOND
1     1     2     2
2     1     47    1
3     1     48    1
4     2     3     1
5     2     49    1
6     3     4     1
7     3     50    1
8     3     51    1
9     4     46    1
10    4     5     1
11    4     43    1
12    5     6     1
13    5     37    1
14    5     7     1
15    7     8     1
16    7     52    1
17    7     53    1
18    8     9     1
19    8     35    1
20    8     10    1
21    10    11    1
22    10    31    1
23    10    12    1
24    12    13    1
25    12    54    1
26    12    55    1
27    13    14    1
28    13    56    1
29    13    57    1
30    14    15    1
31    14    29    1
32    14    16    1
33    16    17    1
34    16    58    1
35    16    59    1
36    17    18    1
37    17    19    1
38    17    20    1
39    19    60    1
40    20    21    1
41    20    22    1
42    20    28    1
43    22    27    1
44    22    23    1
45    23    24    1
46    23    61    1
47    23    62    1
48    24    25    1
49    24    63    1
50    24    64    1
51    25    26    1
52    26    27    1
53    26    65    1
54    26    66    1
55    27    67    1
56    27    68    1
57    28    29    1
58    28    69    1
59    28    70    1
60    29    30    1
61    29    31    1
62    30    71    1
63    30    72    1
64    30    73    1
65    31    32    1
66    31    33    1
67    33    34    1
68    33    74    1
69    33    75    1
70    34    35    1
71    34    76    1
72    34    77    1
73    35    36    1
74    35    37    1
75    36    78    1
76    36    79    1
77    36    80    1
78    37    38    1
79    37    39    1
80    39    40    1
81    40    41    1
82    40    42    2
83    41    81    1
84    41    82    1
85    41    83    1
86    43    44    1
87    43    84    1
88    43    85    1
89    44    45    1
90    44    86    1
91    44    87    1
92    45    46    1
93    45    88    1
94    45    89    1
95    46    90    1
96    46    91    1
@<TRIPOS>SUBSTRUCTURE
1   ZINC000053229445 1     RESIDUE    1   A     ZIN   1
