@<TRIPOS>MOLECULE
ZINC000003860453
37   41    0    0    0
SMALL
USER_CHARGES
NO_NAME
@<TRIPOS>ATOM
1 O1        0.0021    -0.0041     0.0020 O.2    1 <0>      -0.4400
2 C2       -0.0144     1.2105     0.0087 C.2    1 <0>       0.5200
3 O3       -1.1292     1.9679     0.0293 O.3    1 <0>      -0.3100
4 C4       -0.7492     3.3758     0.0326 C.3    1 <0>       0.2500
5 C5        0.7467     3.4068     0.0101 C.ar   1 <0>      -0.0800
6 C6        1.6440     4.4505     0.0020 C.ar   1 <0>      -0.0800
7 C7        2.9960     4.1195    -0.0214 C.ar   1 <0>      -0.0800
8 C8        3.4244     2.8070    -0.0357 C.ar   1 <0>      -0.1200
9 C9        2.5324     1.7450    -0.0281 C.ar   1 <0>      -0.0200
10 C10       1.1724     2.0649     0.0020 C.ar   1 <0>      -0.2000
11 C11      -1.3062     4.0487    -1.1932 C.ar   1 <0>      -0.1700
12 C12      -1.2504     3.3927    -2.4105 C.ar   1 <0>      -0.0400
13 C13      -1.7556     3.9909    -3.5480 C.ar   1 <0>      -0.1600
14 C14      -2.3233     5.2548    -3.4724 C.ar   1 <0>       0.1600
15 O15      -2.8230     5.8443    -4.5903 O.3    1 <0>      -0.4900
16 C16      -2.3804     5.9145    -2.2556 C.ar   1 <0>      -0.1600
17 C17      -1.8698     5.3123    -1.1125 C.ar   1 <0>       0.1500
18 O18      -1.9314     5.9756     0.0668 O.3    1 <0>      -0.2300
19 C19      -1.8347     5.2974     1.2352 C.ar   1 <0>       0.1500
20 C20      -2.3102     5.8851     2.4007 C.ar   1 <0>      -0.1600
21 C21      -2.2208     5.2084     3.6063 C.ar   1 <0>       0.1600
22 O22      -2.6860     5.7840     4.7461 O.3    1 <0>      -0.4900
23 C23      -1.6552     3.9420     3.6479 C.ar   1 <0>      -0.1600
24 C24      -1.1826     3.3592     2.4886 C.ar   1 <0>      -0.0400
25 C25      -1.2706     4.0323     1.2827 C.ar   1 <0>      -0.1700
26 H26       1.3144     5.4790     0.0129 H      1 <0>       0.1400
27 H27       3.7303     4.9114    -0.0291 H      1 <0>       0.1400
28 H28       4.4845     2.6014    -0.0536 H      1 <0>       0.1400
29 H29       2.8726     0.7200    -0.0395 H      1 <0>       0.1500
30 H30      -0.8095     2.4087    -2.4711 H      1 <0>       0.1300
31 H31      -1.7086     3.4754    -4.4959 H      1 <0>       0.1400
32 H32      -3.7563     5.6511    -4.7532 H      1 <0>       0.4000
33 H33      -2.8220     6.8983    -2.1956 H      1 <0>       0.1500
34 H34      -2.7498     6.8710     2.3670 H      1 <0>       0.1500
35 H35      -3.6149     5.5914     4.9332 H      1 <0>       0.4000
36 H36      -1.5842     3.4126     4.5866 H      1 <0>       0.1400
37 H37      -0.7422     2.3737     2.5232 H      1 <0>       0.1300
@<TRIPOS>BOND
1    1    2 2
2    2   10 1
3    2    3 1
4    3    4 1
5    4   25 1
6    4    5 1
7    4   11 1
8    5   10 ar
9    5    6 ar
10    6    7 ar
11    6   26 1
12    7    8 ar
13    7   27 1
14    8    9 ar
15    8   28 1
16    9   10 ar
17    9   29 1
18   11   17 ar
19   11   12 ar
20   12   13 ar
21   12   30 1
22   13   14 ar
23   13   31 1
24   14   15 1
25   14   16 ar
26   15   32 1
27   16   17 ar
28   16   33 1
29   17   18 1
30   18   19 1
31   19   25 ar
32   19   20 ar
33   20   21 ar
34   20   34 1
35   21   22 1
36   21   23 ar
37   22   35 1
38   23   24 ar
39   23   36 1
40   24   25 ar
41   24   37 1
