@<TRIPOS>MOLECULE
ZINC000004099200
41    43    1     0     0
SMALL
USER_CHARGES
@<TRIPOS>ATOM
1      C1     -0.0173    1.4248    0.0099 C.3      1 ZINC000004099200    0.0200
2      O2      0.0021   -0.0041    0.0020 O.3      1 ZINC000004099200   -0.3000
3      C3      0.6255   -0.6181    1.0410 C.ar     1 ZINC000004099200    0.1600
4      C4      1.2089    0.1241    2.0621 C.ar     1 ZINC000004099200   -0.2500
5      C5      1.8337   -0.5367    3.1015 C.ar     1 ZINC000004099200    0.1400
6      N6      1.8826   -1.8543    3.1350 N.ar     1 ZINC000004099200   -0.4900
7      C7      1.3421   -2.5967    2.1868 C.ar     1 ZINC000004099200    0.1600
8      C8      1.4277   -4.0985    2.2767 C.3      1 ZINC000004099200   -0.4100
9      S9     -0.0125   -4.7334    3.1786 S.o      1 ZINC000004099200    1.4000
10     O10     0.0998   -4.3893    4.5527 O.2      1 ZINC000004099200   -0.8200
11     C11     0.2582   -6.4744    3.1825 C.2      1 ZINC000004099200   -0.0700
12     N12    -0.1592   -7.2954    2.2642 N.2      1 ZINC000004099200   -0.4000
13     C13     0.2217   -8.5619    2.5761 C.ar     1 ZINC000004099200    0.0100
14     C14     0.0444   -9.8005    1.9545 C.ar     1 ZINC000004099200   -0.0100
15     C15     0.5574  -10.9300    2.5258 C.ar     1 ZINC000004099200   -0.1900
16     C16     1.2585  -10.8615    3.7263 C.ar     1 ZINC000004099200    0.1400
17     O17     1.7624  -11.9958    4.2810 O.3      1 ZINC000004099200   -0.3200
18     C18     1.5342  -13.2186    3.5776 C.3      1 ZINC000004099200    0.4100
19     F19     0.1577  -13.4380    3.4582 F        1 ZINC000004099200   -0.2000
20     F20     2.1058  -13.1373    2.3033 F        1 ZINC000004099200   -0.2000
21     C21     1.4455   -9.6448    4.3577 C.ar     1 ZINC000004099200   -0.1400
22     C22     0.9291   -8.4895    3.7883 C.ar     1 ZINC000004099200    0.1000
23     N23     0.9397   -7.1556    4.1443 N.pl3    1 ZINC000004099200   -0.5600
24     C24     0.6922   -2.0115    1.1143 C.ar     1 ZINC000004099200    0.0200
25     O25     0.1367   -2.7813    0.1403 O.3      1 ZINC000004099200   -0.3100
26     C26    -1.2239   -3.1777    0.3237 C.3      1 ZINC000004099200    0.0300
27     H27     1.0053    1.8021    0.0021 H        1 ZINC000004099200    0.0600
28     H28    -0.5445    1.7859   -0.8732 H        1 ZINC000004099200    0.1100
29     H29    -0.5275    1.7763    0.9067 H        1 ZINC000004099200    0.0600
30     H30     1.1741    1.2033    2.0423 H        1 ZINC000004099200    0.1500
31     H31     2.2888    0.0335    3.8978 H        1 ZINC000004099200    0.1700
32     H32     1.4433   -4.5223    1.2726 H        1 ZINC000004099200    0.1500
33     H33     2.3394   -4.3796    2.8039 H        1 ZINC000004099200    0.1200
34     H34    -0.4983   -9.8648    1.0230 H        1 ZINC000004099200    0.1500
35     H35     0.4175  -11.8853    2.0418 H        1 ZINC000004099200    0.1500
36     H36     1.9873  -14.0438    4.1271 H        1 ZINC000004099200    0.1900
37     H37     1.9899   -9.5945    5.2891 H        1 ZINC000004099200    0.1400
38     H38     1.3555   -6.7745    4.9335 H        1 ZINC000004099200    0.4300
39     H39    -1.5424   -3.7860   -0.5228 H        1 ZINC000004099200    0.1100
40     H40    -1.3127   -3.7581    1.2420 H        1 ZINC000004099200    0.0400
41     H41    -1.8546   -2.2912    0.3918 H        1 ZINC000004099200    0.0500
@<TRIPOS>BOND
1     1     2     1
2     1     27    1
3     1     28    1
4     1     29    1
5     2     3     1
6     3     24    ar
7     3     4     ar
8     4     5     ar
9     4     30    1
10    5     6     ar
11    5     31    1
12    6     7     ar
13    7     8     1
14    7     24    ar
15    8     9     1
16    8     32    1
17    8     33    1
18    9     10    2
19    9     11    1
20    11    23    1
21    11    12    2
22    12    13    1
23    13    22    ar
24    13    14    ar
25    14    15    ar
26    14    34    1
27    15    16    ar
28    15    35    1
29    16    17    1
30    16    21    ar
31    17    18    1
32    18    19    1
33    18    20    1
34    18    36    1
35    21    22    ar
36    21    37    1
37    22    23    1
38    23    38    1
39    24    25    1
40    25    26    1
41    26    39    1
42    26    40    1
43    26    41    1
@<TRIPOS>SUBSTRUCTURE
1   ZINC000004099200 1     RESIDUE    1   A     ZIN   1
