@<TRIPOS>MOLECULE
ZINC000003964126
47   50    0    0    0
SMALL
USER_CHARGES
NO_NAME
@<TRIPOS>ATOM
1 O1        0.8074     0.1110     1.8941 O.2    1 <0>      -0.5200
2 C2        0.4932     1.1343     1.3146 C.2    1 <0>       0.6000
3 N3        1.4400     1.8975     0.7335 N.am   1 <0>      -0.7300
4 C4        2.8472     1.4955     0.7994 C.3    1 <0>       0.1100
5 C5        3.7071     2.5274     0.0667 C.3    1 <0>       0.0600
6 H6        3.5879     3.5123     0.5180 H      1 <0>       0.1300
7 C7        5.1884     2.1030     0.0796 C.3    1 <0>       0.0700
8 N8        5.5207     1.9474    -1.3448 N.am   1 <0>      -0.5700
9 C9        6.7697     1.5669    -1.8533 C.ar   1 <0>       0.1900
10 C10       7.8192     1.2958    -0.9855 C.ar   1 <0>      -0.1400
11 C11       9.0499     0.9213    -1.4864 C.ar   1 <0>      -0.0800
12 C12       9.2381     0.8153    -2.8582 C.ar   1 <0>       0.1100
13 N13      10.4869     0.4349    -3.3665 N.am   1 <0>      -0.5700
14 C14      11.4641     1.4748    -3.6793 C.3    1 <0>       0.0800
15 C15      12.8638     0.8635    -3.7740 C.3    1 <0>       0.0400
16 O16      12.8044    -0.2887    -4.6231 O.3    1 <0>      -0.3700
17 C17      12.0645    -1.3684    -4.0481 C.3    1 <0>       0.0500
18 C18      10.7405    -0.8679    -3.5419 C.2    1 <0>       0.4900
19 O19       9.8679    -1.6723    -3.2915 O.2    1 <0>      -0.5200
20 C20       8.1884     1.0860    -3.7260 C.ar   1 <0>      -0.0700
21 C21       6.9562     1.4554    -3.2247 C.ar   1 <0>      -0.1400
22 C22       4.4340     2.2281    -2.0768 C.2    1 <0>       0.6500
23 O23       4.4218     2.1803    -3.2910 O.2    1 <0>      -0.4900
24 O24       3.3612     2.5685    -1.3480 O.3    1 <0>      -0.3100
25 C25      -0.9143     1.5330     1.2436 C.2    1 <0>      -0.2700
26 C26      -1.9615     0.8457     1.7909 C.2    1 <0>      -0.0400
27 C27      -3.1784     1.4458     1.5743 C.2    1 <0>      -0.1400
28 C28      -3.1321     2.5870     0.8731 C.2    1 <0>      -0.1600
29 Cl29     -4.5196     3.5448     0.4595 Cl     1 <0>       0.0000
30 S30      -1.5264     2.9762     0.4474 S.3    1 <0>       0.2500
31 H31       1.1896     2.7129     0.2717 H      1 <0>       0.4000
32 H32       3.1598     1.4365     1.8419 H      1 <0>       0.1000
33 H33       2.9690     0.5204     0.3278 H      1 <0>       0.0900
34 H34       5.8049     2.8786     0.5341 H      1 <0>       0.1100
35 H35       5.3111     1.1570     0.6070 H      1 <0>       0.1100
36 H36       7.6729     1.3782     0.0814 H      1 <0>       0.1300
37 H37       9.8665     0.7111    -0.8115 H      1 <0>       0.1300
38 H38      11.2067     1.9389    -4.6313 H      1 <0>       0.0800
39 H39      11.4518     2.2310    -2.8944 H      1 <0>       0.0900
40 H40      13.5540     1.5938    -4.1963 H      1 <0>       0.1200
41 H41      13.2021     0.5687    -2.7807 H      1 <0>       0.0700
42 H42      11.8997    -2.1372    -4.8031 H      1 <0>       0.1400
43 H43      12.6289    -1.7927    -3.2177 H      1 <0>       0.0900
44 H44       8.3347     1.0036    -4.7928 H      1 <0>       0.1300
45 H45       6.1397     1.6656    -3.8996 H      1 <0>       0.1600
46 H46      -1.8441    -0.0774     2.3391 H      1 <0>       0.1600
47 H47      -4.1042     1.0284     1.9418 H      1 <0>       0.1600
@<TRIPOS>BOND
1    1    2 2
2    2    3 am
3    2   25 1
4    3    4 1
5    3   31 1
6    4    5 1
7    4   32 1
8    4   33 1
9    5    6 1
10    5   24 1
11    5    7 1
12    7    8 1
13    7   34 1
14    7   35 1
15    8    9 1
16    8   22 am
17    9   21 ar
18    9   10 ar
19   10   11 ar
20   10   36 1
21   11   12 ar
22   11   37 1
23   12   13 1
24   12   20 ar
25   13   18 am
26   13   14 1
27   14   15 1
28   14   38 1
29   14   39 1
30   15   16 1
31   15   40 1
32   15   41 1
33   16   17 1
34   17   18 1
35   17   42 1
36   17   43 1
37   18   19 2
38   20   21 ar
39   20   44 1
40   21   45 1
41   22   23 2
42   22   24 1
43   25   30 1
44   25   26 2
45   26   27 1
46   26   46 1
47   27   28 2
48   27   47 1
49   28   29 1
50   28   30 1
