@<TRIPOS>MOLECULE
ZINC000003874950
34    34    1     0     0
SMALL
USER_CHARGES
@<TRIPOS>ATOM
1      C1     -0.0126    1.3106   -0.0151 C.2      1 ZINC000003874950   -0.1800
2      C2     -0.0007    0.0007   -0.0024 C.2      1 ZINC000003874950   -0.1600
3      C3     -1.2989   -0.7646    0.0004 C.3      1 ZINC000003874950   -0.0700
4      C4     -1.3140   -1.7478   -1.1718 C.3      1 ZINC000003874950   -0.1500
5      C5     -2.6072   -2.5612   -1.0901 C.3      1 ZINC000003874950   -0.0600
6      H6     -2.5890   -3.1838   -0.1956 H        1 ZINC000003874950    0.0700
7      C7     -2.7290   -3.4513   -2.3286 C.3      1 ZINC000003874950   -0.1500
8      C8     -3.8044   -1.6106   -1.0256 C.3      1 ZINC000003874950   -0.1200
9      C9     -5.0868   -2.4189   -0.8186 C.3      1 ZINC000003874950   -0.1200
10     C10    -6.2840   -1.4683   -0.7540 C.3      1 ZINC000003874950   -0.1500
11     C11    -1.3457   -0.9464   -2.4595 C.2      1 ZINC000003874950    0.5300
12     O12    -2.2380   -0.1580   -2.6875 O.2      1 ZINC000003874950   -0.5500
13     N13    -0.3433   -1.1436   -3.3419 N.pl3    1 ZINC000003874950   -0.7100
14     C14     0.6488   -2.0095   -3.1052 C.2      1 ZINC000003874950    0.6600
15     O15     1.5106   -2.1241   -3.9537 O.2      1 ZINC000003874950   -0.6000
16     N16     0.7613   -2.7581   -2.0020 N.am     1 ZINC000003874950   -0.7000
17     C17    -0.1456   -2.7006   -1.0037 C.2      1 ZINC000003874950    0.5500
18     O18    -0.0308   -3.3854   -0.0099 O.2      1 ZINC000003874950   -0.5300
19     H19     0.9178    1.8590   -0.0171 H        1 ZINC000003874950    0.0900
20     H20    -0.9527    1.8419   -0.0280 H        1 ZINC000003874950    0.1000
21     H21     0.9394   -0.5308    0.0061 H        1 ZINC000003874950    0.1000
22     H22    -1.3947   -1.3143    0.9368 H        1 ZINC000003874950    0.0800
23     H23    -2.1315   -0.0682   -0.0988 H        1 ZINC000003874950    0.0900
24     H24    -1.9209   -4.1828   -2.3311 H        1 ZINC000003874950    0.0500
25     H25    -3.6879   -3.9692   -2.3110 H        1 ZINC000003874950    0.0600
26     H26    -2.6648   -2.8359   -3.2260 H        1 ZINC000003874950    0.0600
27     H27    -3.6736   -0.9176   -0.1945 H        1 ZINC000003874950    0.0600
28     H28    -3.8744   -1.0506   -1.9581 H        1 ZINC000003874950    0.1000
29     H29    -5.2176   -3.1120   -1.6497 H        1 ZINC000003874950    0.0600
30     H30    -5.0169   -2.9789    0.1139 H        1 ZINC000003874950    0.0500
31     H31    -7.1976   -2.0442   -0.6066 H        1 ZINC000003874950    0.0500
32     H32    -6.1532   -0.7753    0.0770 H        1 ZINC000003874950    0.0500
33     H33    -6.3540   -0.9083   -1.6866 H        1 ZINC000003874950    0.0500
34     H34     1.5169   -3.3604   -1.9172 H        1 ZINC000003874950    0.3900
@<TRIPOS>BOND
1     1     2     2
2     1     19    1
3     1     20    1
4     2     3     1
5     2     21    1
6     3     4     1
7     3     22    1
8     3     23    1
9     4     17    1
10    4     5     1
11    4     11    1
12    5     6     1
13    5     7     1
14    5     8     1
15    7     24    1
16    7     25    1
17    7     26    1
18    8     9     1
19    8     27    1
20    8     28    1
21    9     10    1
22    9     29    1
23    9     30    1
24    10    31    1
25    10    32    1
26    10    33    1
27    11    12    2
28    11    13    1
29    13    14    1
30    14    15    2
31    14    16    am
32    16    17    am
33    16    34    1
34    17    18    2
@<TRIPOS>SUBSTRUCTURE
1   ZINC000003874950 1     RESIDUE    1   A     ZIN   1
