@<TRIPOS>MOLECULE
ZINC000001576892
32   32    0    0    0
SMALL
USER_CHARGES
NO_NAME
@<TRIPOS>ATOM
1 C1       -0.0187     1.5258     0.0104 C.3    1 <0>      -0.1500
2 C2        0.0021    -0.0041     0.0020 C.3    1 <0>      -0.1300
3 C3       -1.4333    -0.5336     0.0129 C.3    1 <0>      -0.1200
4 C4       -1.4126    -2.0635     0.0045 C.3    1 <0>      -0.1200
5 C5       -2.8479    -2.5931     0.0153 C.3    1 <0>      -0.1100
6 C6       -2.8272    -4.1229     0.0069 C.3    1 <0>      -0.0800
7 C7       -4.2410    -4.6445     0.0176 C.ar   1 <0>      -0.1100
8 C8       -4.8430    -4.9823     1.2143 C.ar   1 <0>      -0.0900
9 C9       -6.1396    -5.4605     1.2275 C.ar   1 <0>      -0.1500
10 C10      -6.8399    -5.6025     0.0382 C.ar   1 <0>       0.1200
11 O11      -8.1150    -6.0724     0.0518 O.3    1 <0>      -0.5000
12 C12      -6.2379    -5.2642    -1.1642 C.ar   1 <0>      -0.1700
13 C13      -4.9392    -4.7798    -1.1743 C.ar   1 <0>       0.1200
14 O14      -4.3465    -4.4474    -2.3511 O.3    1 <0>      -0.4900
15 H15       1.0039     1.9031     0.0027 H      1 <0>       0.0500
16 H16      -0.5459     1.8868    -0.8726 H      1 <0>       0.0500
17 H17      -0.5289     1.8773     0.9072 H      1 <0>       0.0500
18 H18       0.5123    -0.3556    -0.8948 H      1 <0>       0.0600
19 H19       0.5293    -0.3651     0.8851 H      1 <0>       0.0600
20 H20      -1.9435    -0.1821     0.9097 H      1 <0>       0.0600
21 H21      -1.9605    -0.1726    -0.8702 H      1 <0>       0.0600
22 H22      -0.9024    -2.4150    -0.8923 H      1 <0>       0.0600
23 H23      -0.8854    -2.4246     0.8875 H      1 <0>       0.0600
24 H24      -3.3581    -2.2415     0.9121 H      1 <0>       0.0600
25 H25      -3.3751    -2.2320    -0.8677 H      1 <0>       0.0600
26 H26      -2.3170    -4.4744    -0.8899 H      1 <0>       0.0800
27 H27      -2.3000    -4.4840     0.8900 H      1 <0>       0.0700
28 H28      -4.2994    -4.8728     2.1411 H      1 <0>       0.1300
29 H29      -6.6079    -5.7242     2.1642 H      1 <0>       0.1300
30 H30      -8.7875    -5.3826     0.1358 H      1 <0>       0.3900
31 H31      -6.7813    -5.3743    -2.0910 H      1 <0>       0.1300
32 H32      -4.4819    -3.5265    -2.6134 H      1 <0>       0.3900
@<TRIPOS>BOND
1    1    2 1
2    1   15 1
3    1   16 1
4    1   17 1
5    2    3 1
6    2   18 1
7    2   19 1
8    3    4 1
9    3   20 1
10    3   21 1
11    4    5 1
12    4   22 1
13    4   23 1
14    5    6 1
15    5   24 1
16    5   25 1
17    6    7 1
18    6   26 1
19    6   27 1
20    7   13 ar
21    7    8 ar
22    8    9 ar
23    8   28 1
24    9   10 ar
25    9   29 1
26   10   11 1
27   10   12 ar
28   11   30 1
29   12   13 ar
30   12   31 1
31   13   14 1
32   14   32 1
