@<TRIPOS>MOLECULE
ZINC000003927198
37    39    1     0     0
SMALL
USER_CHARGES
@<TRIPOS>ATOM
1      C1     -0.0236    1.2317   -0.1526 C.2      1 ZINC000003927198   -0.2500
2      C2     -0.0117   -0.1033   -0.1243 C.2      1 ZINC000003927198   -0.0500
3      C3     -1.2706   -0.8447   -0.0933 C.2      1 ZINC000003927198   -0.2200
4      C4     -1.1737   -2.1881   -0.1786 C.2      1 ZINC000003927198    0.1700
5      C5      0.1332   -2.8176   -0.3753 C.2      1 ZINC000003927198    0.5300
6      O6      0.7705   -3.2203    0.5900 O.co2    1 ZINC000003927198   -0.6600
7      O7      0.5894   -2.9415   -1.5052 O.co2    1 ZINC000003927198   -0.6700
8      N8     -2.3239   -2.9785   -0.0783 N.am     1 ZINC000003927198   -0.5600
9      C9     -2.7440   -4.1924    0.2560 C.2      1 ZINC000003927198    0.5200
10     O10    -2.1683   -5.2561    0.3481 O.2      1 ZINC000003927198   -0.4700
11     C11    -4.1843   -3.7966    0.4826 C.3      1 ZINC000003927198    0.1400
12     H12    -4.9088   -4.3997   -0.0646 H        1 ZINC000003927198    0.1400
13     N13    -4.5416   -3.5898    1.8882 N.am     1 ZINC000003927198   -0.7000
14     C14    -5.2654   -4.5191    2.5433 C.2      1 ZINC000003927198    0.5500
15     O15    -5.5406   -5.5698    1.9986 O.2      1 ZINC000003927198   -0.5100
16     C16    -5.7255   -4.2594    3.9278 C.2      1 ZINC000003927198   -0.0700
17     N17    -6.5131   -5.1097    4.5228 N.2      1 ZINC000003927198   -0.2500
18     O18    -6.8421   -6.3328    3.8896 O.3      1 ZINC000003927198   -0.5000
19     C19    -5.2905   -3.0352    4.6341 C.2      1 ZINC000003927198    0.2000
20     C20    -5.5880   -2.8035    5.9278 C.2      1 ZINC000003927198   -0.2800
21     S21    -4.8922   -1.2509    6.3853 S.3      1 ZINC000003927198    0.0000
22     C22    -4.2515   -1.0537    4.7572 C.2      1 ZINC000003927198    0.3600
23     N23    -3.5150    0.0323    4.3146 N.pl3    1 ZINC000003927198   -0.8200
24     N24    -4.5709   -2.0838    4.0382 N.2      1 ZINC000003927198   -0.5400
25     C25    -3.7371   -2.5402   -0.2437 C.3      1 ZINC000003927198    0.1100
26     H26    -4.0756   -2.4714   -1.2775 H        1 ZINC000003927198    0.1400
27     S27    -3.9257   -0.9864    0.6925 S.3      1 ZINC000003927198   -0.2200
28     C28    -2.5147   -0.0277    0.0350 C.3      1 ZINC000003927198   -0.0200
29     H29     0.9068    1.7796   -0.1755 H        1 ZINC000003927198    0.0900
30     H30    -0.9636    1.7634   -0.1572 H        1 ZINC000003927198    0.0900
31     H31     0.9283   -0.6350   -0.1242 H        1 ZINC000003927198    0.1200
32     H32    -4.2573   -2.7841    2.3475 H        1 ZINC000003927198    0.4300
33     H33    -6.1560   -3.4571    6.5732 H        1 ZINC000003927198    0.1700
34     H34    -3.3161    0.7629    4.9209 H        1 ZINC000003927198    0.4100
35     H35    -3.1981    0.0624    3.3983 H        1 ZINC000003927198    0.4100
36     H36    -2.3280    0.8223    0.6913 H        1 ZINC000003927198    0.1100
37     H37    -2.7709    0.3433   -0.9574 H        1 ZINC000003927198    0.0800
@<TRIPOS>BOND
1     1     2     2
2     1     29    1
3     1     30    1
4     2     3     1
5     2     31    1
6     3     28    1
7     3     4     2
8     4     5     1
9     4     8     1
10    5     6     ar
11    5     7     ar
12    8     25    1
13    8     9     am
14    9     10    2
15    9     11    1
16    11    12    1
17    11    13    1
18    11    25    1
19    13    14    am
20    13    32    1
21    14    15    2
22    14    16    1
23    16    17    2
24    16    19    1
25    17    18    1
26    19    24    1
27    19    20    2
28    20    21    1
29    20    33    1
30    21    22    1
31    22    23    1
32    22    24    2
33    23    34    1
34    23    35    1
35    25    26    1
36    25    27    1
37    27    28    1
38    28    36    1
39    28    37    1
@<TRIPOS>SUBSTRUCTURE
1   ZINC000003927198 1     RESIDUE    1   A     ZIN   1
