@<TRIPOS>MOLECULE
ZINC000001639567
22   23    0    0    0
SMALL
USER_CHARGES
NO_NAME
@<TRIPOS>ATOM
1 N1       -0.0116     1.0048     0.0076 N.4    1 <0>      -0.6100
2 H2        0.0021    -0.0041     0.0020 H      1 <0>       0.4400
3 H3        0.9350     1.3541     0.0004 H      1 <0>       0.4300
4 H4       -0.4996     1.3391    -0.8099 H      1 <0>       0.4400
5 C5       -0.6992     1.4786     1.2162 C.3    1 <0>      -0.0700
6 H6       -1.7844     1.5496     1.1424 H      1 <0>       0.1900
7 C7        0.0201     2.5200     2.0758 C.3    1 <0>      -0.1500
8 C8       -0.1079     1.0765     2.5688 C.3    1 <0>      -0.0800
9 H9       -0.8040     0.8833     3.3850 H      1 <0>       0.1500
10 C10       1.1357     0.2253     2.5599 C.ar   1 <0>      -0.1000
11 C11       2.2898     0.6941     1.9606 C.ar   1 <0>      -0.1500
12 C12       3.4305    -0.0867     1.9524 C.ar   1 <0>      -0.1100
13 C13       3.4172    -1.3360     2.5439 C.ar   1 <0>      -0.1000
14 C14       2.2634    -1.8044     3.1440 C.ar   1 <0>      -0.1000
15 C15       1.1239    -1.0218     3.1560 C.ar   1 <0>      -0.1000
16 H16       1.0035     2.8537     1.7445 H      1 <0>       0.1200
17 H17      -0.5919     3.2759     2.5678 H      1 <0>       0.1400
18 H18       2.3002     1.6702     1.4984 H      1 <0>       0.1200
19 H19       4.3320     0.2793     1.4835 H      1 <0>       0.1300
20 H20       4.3083    -1.9463     2.5369 H      1 <0>       0.1300
21 H21       2.2529    -2.7806     3.6059 H      1 <0>       0.1400
22 H22       0.2224    -1.3877     3.6249 H      1 <0>       0.1300
@<TRIPOS>BOND
1    1    2 1
2    1    3 1
3    1    4 1
4    1    5 1
5    5    6 1
6    5    8 1
7    5    7 1
8    7    8 1
9    7   16 1
10    7   17 1
11    8    9 1
12    8   10 1
13   10   15 ar
14   10   11 ar
15   11   12 ar
16   11   18 1
17   12   13 ar
18   12   19 1
19   13   14 ar
20   13   20 1
21   14   15 ar
22   14   21 1
23   15   22 1
