@<TRIPOS>MOLECULE
ZINC000001611274
54    58    1     0     0
SMALL
USER_CHARGES
@<TRIPOS>ATOM
1      C1     -0.0187    1.5258    0.0104 C.3      1 ZINC000001611274   -0.1600
2      C2      0.0021   -0.0041    0.0020 C.3      1 ZINC000001611274   -0.1400
3      C3      0.7182   -0.4975   -1.2568 C.3      1 ZINC000001611274    0.1400
4      O4      0.0305   -0.0216   -2.4155 O.3      1 ZINC000001611274   -0.5200
5      C5      2.1397    0.0160   -1.2639 C.2      1 ZINC000001611274    0.4700
6      O6      2.4675    0.9654   -1.9355 O.2      1 ZINC000001611274   -0.4300
7      O7      3.0265   -0.6396   -0.4806 O.3      1 ZINC000001611274   -0.3700
8      C8      3.2108   -2.0408   -0.8128 C.3      1 ZINC000001611274    0.1500
9      C9      1.8828   -2.7094   -1.0509 C.2      1 ZINC000001611274   -0.2500
10     C10     0.7396   -2.0054   -1.2667 C.2      1 ZINC000001611274    0.0500
11     C11    -0.4589   -2.6924   -1.5014 C.2      1 ZINC000001611274   -0.1700
12     C12    -0.4791   -4.0709   -1.5047 C.2      1 ZINC000001611274    0.2200
13     C13    -1.6013   -5.0127   -1.7258 C.ar     1 ZINC000001611274    0.0800
14     C14    -1.1014   -6.3222   -1.6242 C.ar     1 ZINC000001611274   -0.1200
15     C15    -1.9275   -7.3900   -1.7864 C.ar     1 ZINC000001611274   -0.1200
16     C16    -3.2888   -7.1425   -2.0566 C.ar     1 ZINC000001611274    0.0200
17     C17    -3.7398   -5.8001   -2.1479 C.ar     1 ZINC000001611274    0.0700
18     N18    -2.8819   -4.7937   -1.9802 N.ar     1 ZINC000001611274   -0.3900
19     C19    -5.0999   -5.5513   -2.4169 C.ar     1 ZINC000001611274   -0.0400
20     C20    -5.9566   -6.5927   -2.5858 C.ar     1 ZINC000001611274   -0.1700
21     C21    -5.5109   -7.9157   -2.4962 C.ar     1 ZINC000001611274    0.3200
22     O22    -6.3922   -8.9348   -2.6707 O.3      1 ZINC000001611274   -0.6700
23     C23    -4.1983   -8.1944   -2.2359 C.ar     1 ZINC000001611274   -0.3600
24     C24    -3.7316   -9.6242   -2.1412 C.3      1 ZINC000001611274    0.0800
25     N25    -3.3110  -10.0909   -3.4690 N.4      1 ZINC000001611274   -0.3800
26     H26    -4.0640   -9.9563   -4.1270 H        1 ZINC000001611274    0.4300
27     C27    -2.1354   -9.3266   -3.9071 C.3      1 ZINC000001611274   -0.0500
28     C28    -2.9696  -11.5181   -3.4009 C.3      1 ZINC000001611274   -0.0400
29     C29     0.3723   -6.2047   -1.3316 C.3      1 ZINC000001611274    0.1400
30     N30     0.6734   -4.7679   -1.2762 N.am     1 ZINC000001611274   -0.5000
31     C31     1.8318   -4.1188   -1.0508 C.2      1 ZINC000001611274    0.5500
32     O32     2.8504   -4.7585   -0.8443 O.2      1 ZINC000001611274   -0.5400
33     H33     1.0039    1.9031    0.0027 H        1 ZINC000001611274    0.0600
34     H34    -0.5459    1.8868   -0.8726 H        1 ZINC000001611274    0.0600
35     H35    -0.5289    1.8773    0.9072 H        1 ZINC000001611274    0.0700
36     H36     0.5293   -0.3651    0.8851 H        1 ZINC000001611274    0.0900
37     H37    -1.0205   -0.3814    0.0098 H        1 ZINC000001611274    0.1000
38     H38    -0.0189    0.9423   -2.4754 H        1 ZINC000001611274    0.3900
39     H39     3.8192   -2.1193   -1.7138 H        1 ZINC000001611274    0.0900
40     H40     3.7223   -2.5406    0.0098 H        1 ZINC000001611274    0.1300
41     H41    -1.3697   -2.1403   -1.6800 H        1 ZINC000001611274    0.1600
42     H42    -1.5512   -8.3995   -1.7106 H        1 ZINC000001611274    0.1300
43     H43    -5.4609   -4.5360   -2.4884 H        1 ZINC000001611274    0.1300
44     H44    -6.9983   -6.3958   -2.7921 H        1 ZINC000001611274    0.1300
45     H45    -2.8904   -9.6868   -1.4508 H        1 ZINC000001611274    0.1100
46     H46    -4.5472  -10.2493   -1.7778 H        1 ZINC000001611274    0.1300
47     H47    -1.8233   -9.6729   -4.8923 H        1 ZINC000001611274    0.1100
48     H48    -2.3888   -8.2677   -3.9576 H        1 ZINC000001611274    0.1200
49     H49    -1.3220   -9.4721   -3.1963 H        1 ZINC000001611274    0.1100
50     H50    -3.8418  -12.0852   -3.0759 H        1 ZINC000001611274    0.1200
51     H51    -2.6575  -11.8644   -4.3862 H        1 ZINC000001611274    0.1100
52     H52    -2.1561  -11.6636   -2.6901 H        1 ZINC000001611274    0.1100
53     H53     0.6016   -6.6717   -0.3738 H        1 ZINC000001611274    0.1100
54     H54     0.9499   -6.6772   -2.1261 H        1 ZINC000001611274    0.1100
@<TRIPOS>BOND
1     1     2     1
2     1     33    1
3     1     34    1
4     1     35    1
5     2     3     1
6     2     36    1
7     2     37    1
8     3     10    1
9     3     4     1
10    3     5     1
11    4     38    1
12    5     6     2
13    5     7     1
14    7     8     1
15    8     9     1
16    8     39    1
17    8     40    1
18    9     31    1
19    9     10    2
20    10    11    1
21    11    12    2
22    11    41    1
23    12    30    1
24    12    13    1
25    13    18    ar
26    13    14    ar
27    14    15    ar
28    14    29    1
29    15    16    ar
30    15    42    1
31    16    23    ar
32    16    17    ar
33    17    18    ar
34    17    19    ar
35    19    20    ar
36    19    43    1
37    20    21    ar
38    20    44    1
39    21    22    1
40    21    23    ar
41    23    24    1
42    24    25    1
43    24    45    1
44    24    46    1
45    25    26    1
46    25    27    1
47    25    28    1
48    27    47    1
49    27    48    1
50    27    49    1
51    28    50    1
52    28    51    1
53    28    52    1
54    29    30    1
55    29    53    1
56    29    54    1
57    30    31    am
58    31    32    2
@<TRIPOS>SUBSTRUCTURE
1   ZINC000001611274 1     RESIDUE    1   A     ZIN   1
