@<TRIPOS>MOLECULE
ZINC000003831474
14   13    0    0    0
SMALL
USER_CHARGES
NO_NAME
@<TRIPOS>ATOM
1 O1        0.0021    -0.0041     0.0020 O.co2  1 <0>      -0.7000
2 C2       -0.0145     1.2150     0.0087 C.2    1 <0>       0.5000
3 O3        1.0330     1.8389     0.0021 O.co2  1 <0>      -0.6500
4 C4       -1.3296     1.9507     0.0190 C.3    1 <0>      -0.0800
5 H5       -2.0837     1.3542    -0.4946 H      1 <0>       0.1100
6 S6       -1.8492     2.2366     1.7333 S.3    1 <0>      -0.2600
7 C7       -1.1683     3.2938    -0.6958 C.3    1 <0>      -0.0800
8 H8       -0.8561     3.1221    -1.7259 H      1 <0>       0.1000
9 S9        0.0866     4.2866     0.1588 S.3    1 <0>      -0.2200
10 C10      -2.4835     4.0295    -0.6855 C.2    1 <0>       0.5100
11 O11      -2.7157     4.8510     0.1850 O.co2  1 <0>      -0.6800
12 O12      -3.3152     3.8033    -1.5478 O.co2  1 <0>      -0.7000
13 H13      -0.8416     2.9720     2.2362 H      1 <0>       0.0800
14 H14      -0.4228     4.4177     1.3967 H      1 <0>       0.0600
@<TRIPOS>BOND
1    1    2 ar
2    2    3 ar
3    2    4 1
4    4    5 1
5    4    6 1
6    4    7 1
7    6   13 1
8    7    8 1
9    7    9 1
10    7   10 1
11    9   14 1
12   10   11 ar
13   10   12 ar
