@<TRIPOS>MOLECULE
ZINC000003831165
50   51    0    0    0
SMALL
USER_CHARGES
NO_NAME
@<TRIPOS>ATOM
1 C1       -0.0187     1.5258     0.0104 C.3    1 <0>      -0.1800
2 C2        0.0021    -0.0041     0.0020 C.3    1 <0>       0.0500
3 C3        0.7421    -0.5109     1.2415 C.3    1 <0>      -0.1800
4 C4       -1.4333    -0.5336     0.0129 C.3    1 <0>      -0.1800
5 N5        0.6897    -0.4778    -1.2066 N.4    1 <0>      -0.5000
6 H6        0.7033    -1.4867    -1.2121 H      1 <0>       0.4300
7 H7        0.2017    -0.1436    -2.0240 H      1 <0>       0.4300
8 C8        2.0678     0.0307    -1.2170 C.3    1 <0>      -0.0500
9 C9        2.7840    -0.4628    -2.4758 C.3    1 <0>       0.0900
10 H10       2.2568    -0.1017    -3.3589 H      1 <0>       0.1300
11 O11       2.8033    -1.8916    -2.4837 O.3    1 <0>      -0.5400
12 C12       4.2193     0.0668    -2.4867 C.3    1 <0>       0.0300
13 O13       4.8516    -0.2959    -3.7158 O.3    1 <0>      -0.3000
14 C14       6.1401     0.1007    -3.8874 C.ar   1 <0>       0.1200
15 C15       6.7777     0.8174    -2.8893 C.ar   1 <0>      -0.2100
16 C16       8.0875     1.2204    -3.0657 C.ar   1 <0>      -0.0800
17 C17       8.7499     0.9089    -4.2351 C.ar   1 <0>      -0.1500
18 C18       8.1135     0.1910    -5.2403 C.ar   1 <0>      -0.0400
19 C19       6.8130    -0.2218    -5.0649 C.ar   1 <0>      -0.0800
20 C20       6.0669    -1.0166    -6.1043 C.3    1 <0>      -0.0900
21 C21       6.7539    -0.9022    -7.4636 C.3    1 <0>       0.1100
22 H22       6.6474     0.1135    -7.8444 H      1 <0>       0.0700
23 O23       6.1623    -1.8245    -8.3809 O.3    1 <0>      -0.5500
24 C24       8.2401    -1.2331    -7.2838 C.3    1 <0>       0.1100
25 H25       8.7167    -1.3238    -8.2599 H      1 <0>       0.0700
26 O26       8.3764    -2.4611    -6.5658 O.3    1 <0>      -0.5500
27 C27       8.8962    -0.1057    -6.4928 C.3    1 <0>      -0.1200
28 H28       1.0039     1.9031     0.0027 H      1 <0>       0.0800
29 H29      -0.5459     1.8868    -0.8726 H      1 <0>       0.0800
30 H30      -0.5289     1.8773     0.9072 H      1 <0>       0.1100
31 H31       0.2319    -0.1594     2.1383 H      1 <0>       0.1100
32 H32       0.7568    -1.6008     1.2356 H      1 <0>       0.0800
33 H33       1.7647    -0.1336     1.2338 H      1 <0>       0.0800
34 H34      -1.9605    -0.1726    -0.8702 H      1 <0>       0.0800
35 H35      -1.4185    -1.6235     0.0069 H      1 <0>       0.0800
36 H36      -1.9435    -0.1821     0.9097 H      1 <0>       0.1100
37 H37       2.0530     1.1205    -1.2110 H      1 <0>       0.1500
38 H38       2.5950    -0.3304    -0.3340 H      1 <0>       0.1400
39 H39       3.2576    -2.2830    -1.7250 H      1 <0>       0.3900
40 H40       4.2068     1.1526    -2.3912 H      1 <0>       0.0800
41 H41       4.7722    -0.3649    -1.6524 H      1 <0>       0.0800
42 H42       6.2535     1.0608    -1.9769 H      1 <0>       0.1200
43 H43       8.5914     1.7782    -2.2901 H      1 <0>       0.1300
44 H44       9.7731     1.2266    -4.3708 H      1 <0>       0.1300
45 H45       6.0376    -2.0638    -5.8033 H      1 <0>       0.0900
46 H46       5.0480    -0.6375    -6.1836 H      1 <0>       0.0700
47 H47       5.2173    -1.6815    -8.5280 H      1 <0>       0.3800
48 H48       9.2932    -2.7301    -6.4169 H      1 <0>       0.3800
49 H49       8.9302     0.7930    -7.1087 H      1 <0>       0.0900
50 H50       9.9123    -0.3971    -6.2269 H      1 <0>       0.0900
@<TRIPOS>BOND
1    1    2 1
2    1   28 1
3    1   29 1
4    1   30 1
5    2    3 1
6    2    4 1
7    2    5 1
8    3   31 1
9    3   32 1
10    3   33 1
11    4   34 1
12    4   35 1
13    4   36 1
14    5    6 1
15    5    7 1
16    5    8 1
17    8    9 1
18    8   37 1
19    8   38 1
20    9   10 1
21    9   11 1
22    9   12 1
23   11   39 1
24   12   13 1
25   12   40 1
26   12   41 1
27   13   14 1
28   14   19 ar
29   14   15 ar
30   15   16 ar
31   15   42 1
32   16   17 ar
33   16   43 1
34   17   18 ar
35   17   44 1
36   18   27 1
37   18   19 ar
38   19   20 1
39   20   21 1
40   20   45 1
41   20   46 1
42   21   22 1
43   21   23 1
44   21   24 1
45   23   47 1
46   24   25 1
47   24   26 1
48   24   27 1
49   26   48 1
50   27   49 1
51   27   50 1
