@<TRIPOS>MOLECULE
ZINC000000005823
44    45    1     0     0
SMALL
USER_CHARGES
@<TRIPOS>ATOM
1      C1     -1.9830   -2.3497   -2.0609 C.3      1 ZINC000000005823   -0.1200
2      C2     -1.0011   -1.8936   -1.0127 C.ar     1 ZINC000000005823   -0.0600
3      C3     -0.1730   -0.8153   -1.2648 C.ar     1 ZINC000000005823   -0.1200
4      C4      0.7299   -0.3936   -0.3057 C.ar     1 ZINC000000005823   -0.0900
5      C5      0.8069   -1.0483    0.9075 C.ar     1 ZINC000000005823   -0.1300
6      C6     -0.0240   -2.1319    1.1644 C.ar     1 ZINC000000005823    0.1200
7      N7      0.0513   -2.7968    2.3912 N.pl3    1 ZINC000000005823   -0.6100
8      C8     -0.0202   -4.1866    2.4353 C.ar     1 ZINC000000005823    0.3700
9      C9     -0.0059   -4.9414    1.2626 C.ar     1 ZINC000000005823   -0.2100
10     C10    -0.0780   -6.3159    1.3497 C.ar     1 ZINC000000005823    0.1700
11     N11    -0.1598   -6.9163    2.5221 N.ar     1 ZINC000000005823   -0.5000
12     H12    -0.2089   -7.8846    2.5529 H        1 ZINC000000005823    0.4500
13     C13    -0.1761   -6.2374    3.6542 C.ar     1 ZINC000000005823    0.2700
14     C14    -0.1023   -4.8607    3.6539 C.ar     1 ZINC000000005823   -0.7100
15     S15    -0.1249   -3.9645    5.1708 S.o2     1 ZINC000000005823    2.6800
16     O16     1.2526   -3.7892    5.6576 O.2      1 ZINC000000005823   -1.0000
17     O17    -0.7394   -2.6454    4.9521 O.3      1 ZINC000000005823   -1.0100
18     N18    -0.9186   -4.7216    6.1845 N.am     1 ZINC000000005823   -1.2500
19     C19    -1.0717   -4.2293    7.4151 C.2      1 ZINC000000005823    0.7500
20     O20    -0.5645   -3.1629    7.7117 O.2      1 ZINC000000005823   -0.6300
21     N21    -1.7880   -4.9125    8.3298 N.am     1 ZINC000000005823   -0.7200
22     C22    -1.9561   -4.3720    9.6810 C.3      1 ZINC000000005823    0.1500
23     C23    -3.2356   -4.9374   10.3009 C.3      1 ZINC000000005823   -0.1600
24     C24    -0.7546   -4.7675   10.5417 C.3      1 ZINC000000005823   -0.1600
25     C25    -0.9332   -2.5495    0.2009 C.ar     1 ZINC000000005823   -0.1500
26     H26    -2.9270   -1.8211   -1.9290 H        1 ZINC000000005823    0.0800
27     H27    -1.5822   -2.1359   -3.0518 H        1 ZINC000000005823    0.0700
28     H28    -2.1499   -3.4222   -1.9602 H        1 ZINC000000005823    0.0700
29     H29    -0.2312   -0.3015   -2.2130 H        1 ZINC000000005823    0.1300
30     H30     1.3758    0.4485   -0.5062 H        1 ZINC000000005823    0.1400
31     H31     1.5124   -0.7188    1.6559 H        1 ZINC000000005823    0.1400
32     H32     0.1533   -2.2900    3.2120 H        1 ZINC000000005823    0.4400
33     H33     0.0605   -4.4563    0.3000 H        1 ZINC000000005823    0.1900
34     H34    -0.0679   -6.9085    0.4468 H        1 ZINC000000005823    0.2100
35     H35    -0.2443   -6.7675    4.5927 H        1 ZINC000000005823    0.2200
36     H36    -2.1921   -5.7621    8.0935 H        1 ZINC000000005823    0.3900
37     H37    -2.0257   -3.2854    9.6316 H        1 ZINC000000005823    0.0800
38     H38    -3.1660   -6.0240   10.3503 H        1 ZINC000000005823    0.0600
39     H39    -3.3608   -4.5352   11.3062 H        1 ZINC000000005823    0.0700
40     H40    -4.0916   -4.6556    9.6877 H        1 ZINC000000005823    0.0600
41     H41     0.1569   -4.3647   10.1001 H        1 ZINC000000005823    0.0600
42     H42    -0.8797   -4.3653   11.5471 H        1 ZINC000000005823    0.0600
43     H43    -0.6850   -5.8541   10.5911 H        1 ZINC000000005823    0.0500
44     H44    -1.5806   -3.3913    0.3974 H        1 ZINC000000005823    0.1300
@<TRIPOS>BOND
1     1     2     1
2     1     26    1
3     1     27    1
4     1     28    1
5     2     25    ar
6     2     3     ar
7     3     4     ar
8     3     29    1
9     4     5     ar
10    4     30    1
11    5     6     ar
12    5     31    1
13    6     7     1
14    6     25    ar
15    7     8     1
16    7     32    1
17    8     14    ar
18    8     9     ar
19    9     10    ar
20    9     33    1
21    10    11    ar
22    10    34    1
23    11    12    1
24    11    13    ar
25    13    14    ar
26    13    35    1
27    14    15    1
28    15    16    2
29    15    17    1
30    15    18    2
31    18    19    1
32    19    20    2
33    19    21    am
34    21    22    1
35    21    36    1
36    22    23    1
37    22    24    1
38    22    37    1
39    23    38    1
40    23    39    1
41    23    40    1
42    24    41    1
43    24    42    1
44    24    43    1
45    25    44    1
@<TRIPOS>SUBSTRUCTURE
1   ZINC000000005823 1     RESIDUE    1   A     ZIN   1
