@<TRIPOS>MOLECULE
ZINC000003800475
61   63    0    0    0
SMALL
USER_CHARGES
NO_NAME
@<TRIPOS>ATOM
1 C1       -0.0187     1.5258     0.0104 C.3    1 <0>      -0.1500
2 C2        0.0021    -0.0041     0.0020 C.3    1 <0>      -0.1300
3 C3        0.7182    -0.4975    -1.2568 C.3    1 <0>      -0.1200
4 C4        0.7390    -2.0273    -1.2652 C.3    1 <0>      -0.1200
5 C5        1.4551    -2.5207    -2.5240 C.3    1 <0>      -0.1500
6 C6        1.4758    -4.0506    -2.5324 C.3    1 <0>       0.1000
7 H7        0.4580    -4.4283    -2.4352 H      1 <0>       0.1000
8 O8        2.2655    -4.5223    -1.4388 O.3    1 <0>      -0.5600
9 C9        2.0798    -4.5452    -3.8483 C.3    1 <0>      -0.1500
10 C10       1.9868    -6.0711    -3.9104 C.3    1 <0>      -0.1100
11 C11       2.5908    -6.5657    -5.2262 C.3    1 <0>      -0.0800
12 H12       2.1161    -6.0632    -6.0690 H      1 <0>       0.0800
13 C13       4.1105    -6.3087    -5.2425 C.3    1 <0>       0.1000
14 H14       4.4091    -5.7773    -4.3388 H      1 <0>       0.0600
15 O15       4.4659    -5.5467    -6.3980 O.3    1 <0>      -0.5700
16 C16       4.7932    -7.6980    -5.2911 C.3    1 <0>      -0.1500
17 C17       3.7174    -8.6286    -4.7145 C.3    1 <0>      -0.0800
18 H18       3.6615    -8.4592    -3.6392 H      1 <0>       0.0700
19 C19       3.9475   -10.0891    -4.9505 C.3    1 <0>      -0.0600
20 C20       3.5829   -10.5439    -6.3341 C.ar   1 <0>      -0.1100
21 C21       4.0135   -11.8040    -6.7446 C.ar   1 <0>       0.1400
22 O22       4.7588   -12.5695    -5.9048 O.3    1 <0>      -0.2800
23 C23       5.1682   -13.8511    -6.3866 C.3    1 <0>      -0.0100
24 C24       5.9793   -14.5506    -5.3265 C.2    1 <0>       0.5000
25 O25       6.1875   -14.0026    -4.2575 O.co2  1 <0>      -0.6700
26 O26       6.4274   -15.6647    -5.5379 O.co2  1 <0>      -0.6900
27 C27       3.6863   -12.2812    -8.0027 C.ar   1 <0>      -0.2200
28 C28       2.9258   -11.5015    -8.8522 C.ar   1 <0>      -0.0800
29 C29       2.5071   -10.2511    -8.4471 C.ar   1 <0>      -0.1800
30 C30       2.8432    -9.7616    -7.1894 C.ar   1 <0>      -0.0400
31 C31       2.4023    -8.3730    -6.8394 C.3    1 <0>      -0.0700
32 C32       2.4127    -8.1082    -5.3519 C.3    1 <0>      -0.0800
33 H33       1.5157    -8.4766    -4.8542 H      1 <0>       0.0900
34 H34       1.0039     1.9031     0.0027 H      1 <0>       0.0500
35 H35      -0.5459     1.8868    -0.8726 H      1 <0>       0.0500
36 H36      -0.5289     1.8773     0.9072 H      1 <0>       0.0500
37 H37       0.5293    -0.3651     0.8851 H      1 <0>       0.0600
38 H38      -1.0205    -0.3814     0.0098 H      1 <0>       0.0600
39 H39       0.1910    -0.1364    -2.1398 H      1 <0>       0.0600
40 H40       1.7408    -0.1202    -1.2645 H      1 <0>       0.0600
41 H41       1.2661    -2.3884    -0.3821 H      1 <0>       0.0700
42 H42      -0.2836    -2.4046    -1.2575 H      1 <0>       0.0600
43 H43       0.9279    -2.1597    -3.4071 H      1 <0>       0.0700
44 H44       2.4777    -2.1435    -2.5317 H      1 <0>       0.0600
45 H45       3.1852    -4.2243    -1.4604 H      1 <0>       0.3700
46 H46       1.5308    -4.1134    -4.6851 H      1 <0>       0.0700
47 H47       3.1254    -4.2423    -3.9047 H      1 <0>       0.0700
48 H48       2.5358    -6.5029    -3.0736 H      1 <0>       0.0700
49 H49       0.9413    -6.3740    -3.8540 H      1 <0>       0.0700
50 H50       5.4106    -5.3520    -6.4654 H      1 <0>       0.3800
51 H51       5.0325    -7.9745    -6.3179 H      1 <0>       0.0800
52 H52       5.6879    -7.7102    -4.6686 H      1 <0>       0.0700
53 H53       5.0016   -10.3075    -4.7789 H      1 <0>       0.0800
54 H54       3.3563   -10.6554    -4.2309 H      1 <0>       0.0800
55 H55       4.2878   -14.4484    -6.6236 H      1 <0>       0.0600
56 H56       5.7743   -13.7253    -7.2838 H      1 <0>       0.0600
57 H57       4.0241   -13.2573    -8.3181 H      1 <0>       0.1300
58 H58       2.6597   -11.8700    -9.8319 H      1 <0>       0.1200
59 H59       1.9118    -9.6452    -9.1142 H      1 <0>       0.1100
60 H60       3.0659    -7.6612    -7.3303 H      1 <0>       0.0800
61 H61       1.3908    -8.2218    -7.2164 H      1 <0>       0.0700
@<TRIPOS>BOND
1    1    2 1
2    1   34 1
3    1   35 1
4    1   36 1
5    2    3 1
6    2   37 1
7    2   38 1
8    3    4 1
9    3   39 1
10    3   40 1
11    4    5 1
12    4   41 1
13    4   42 1
14    5    6 1
15    5   43 1
16    5   44 1
17    6    7 1
18    6    8 1
19    6    9 1
20    8   45 1
21    9   10 1
22    9   46 1
23    9   47 1
24   10   11 1
25   10   48 1
26   10   49 1
27   11   12 1
28   11   32 1
29   11   13 1
30   13   14 1
31   13   15 1
32   13   16 1
33   15   50 1
34   16   17 1
35   16   51 1
36   16   52 1
37   17   18 1
38   17   32 1
39   17   19 1
40   19   20 1
41   19   53 1
42   19   54 1
43   20   30 ar
44   20   21 ar
45   21   22 1
46   21   27 ar
47   22   23 1
48   23   24 1
49   23   55 1
50   23   56 1
51   24   25 ar
52   24   26 ar
53   27   28 ar
54   27   57 1
55   28   29 ar
56   28   58 1
57   29   30 ar
58   29   59 1
59   30   31 1
60   31   32 1
61   31   60 1
62   31   61 1
63   32   33 1
