@<TRIPOS>MOLECULE
ZINC000049841054
109   112   1     0     0
SMALL
USER_CHARGES
@<TRIPOS>ATOM
1      C1      4.0100  -10.3422    0.9182 C.3      1 ZINC000049841054   -0.1500
2      C2      4.2186   -9.6183    2.2499 C.3      1 ZINC000049841054   -0.0900
3      C3      5.0733   -8.3697    2.0232 C.3      1 ZINC000049841054   -0.1400
4      C4      2.8615   -9.2095    2.8262 C.3      1 ZINC000049841054   -0.1200
5      C5      3.0603   -8.5977    4.2144 C.3      1 ZINC000049841054    0.1300
6      H6      3.7711   -7.7738    4.1499 H        1 ZINC000049841054    0.1200
7      N7      3.5780   -9.6187    5.1285 N.am     1 ZINC000049841054   -0.7000
8      C8      4.9025   -9.8613    5.1876 C.2      1 ZINC000049841054    0.5200
9      O9      5.6657   -9.2342    4.4839 O.2      1 ZINC000049841054   -0.5200
10     C10     5.4350  -10.9116    6.1279 C.3      1 ZINC000049841054    0.1300
11     H11     5.0011  -11.8791    5.8752 H        1 ZINC000049841054    0.1200
12     C12     5.0618  -10.5452    7.5658 C.3      1 ZINC000049841054   -0.1200
13     C13     5.4927  -11.6716    8.5073 C.3      1 ZINC000049841054   -0.0700
14     C14     5.1251  -11.3108    9.9235 C.ar     1 ZINC000049841054   -0.0800
15     C15     6.0200  -10.6137   10.7136 C.ar     1 ZINC000049841054   -0.1200
16     C16     5.6828  -10.2827   12.0127 C.ar     1 ZINC000049841054   -0.1200
17     C17     4.4507  -10.6483   12.5216 C.ar     1 ZINC000049841054   -0.1300
18     C18     3.5554  -11.3446   11.7312 C.ar     1 ZINC000049841054   -0.1200
19     C19     3.8909  -11.6718   10.4307 C.ar     1 ZINC000049841054   -0.1200
20     N20     6.8930  -10.9831    6.0049 N.am     1 ZINC000049841054   -0.7100
21     C21     7.5414  -12.1202    6.3260 C.2      1 ZINC000049841054    0.5200
22     O22     6.9178  -13.0843    6.7167 O.2      1 ZINC000049841054   -0.5100
23     C23     9.0413  -12.1938    6.1994 C.3      1 ZINC000049841054    0.0400
24     N24     9.4882  -13.5678    6.4647 N.3      1 ZINC000049841054   -0.5200
25     C25    10.9498  -13.6272    6.6123 C.3      1 ZINC000049841054    0.0200
26     C26    11.3657  -15.0623    6.9460 C.3      1 ZINC000049841054    0.0600
27     O27    10.8885  -15.9415    5.9239 O.3      1 ZINC000049841054   -0.3900
28     C28     9.4689  -15.9095    5.7536 C.3      1 ZINC000049841054    0.0700
29     C29     9.0338  -14.4830    5.4078 C.3      1 ZINC000049841054    0.0200
30     C30     1.7410   -8.0837    4.7305 C.2      1 ZINC000049841054    0.5200
31     O31     1.2787   -8.5268    5.7605 O.2      1 ZINC000049841054   -0.5100
32     N32     1.0749   -7.1318    4.0474 N.am     1 ZINC000049841054   -0.7100
33     C33    -0.2076   -6.6322    4.5491 C.3      1 ZINC000049841054    0.1400
34     H34    -0.7530   -7.4463    5.0265 H        1 ZINC000049841054    0.1200
35     C35     0.0423   -5.5190    5.5686 C.3      1 ZINC000049841054   -0.0900
36     C36     0.7465   -6.0893    6.7726 C.ar     1 ZINC000049841054   -0.0700
37     C37     0.0111   -6.5857    7.8327 C.ar     1 ZINC000049841054   -0.1000
38     C38     0.6571   -7.1088    8.9372 C.ar     1 ZINC000049841054   -0.1100
39     C39     2.0385   -7.1360    8.9814 C.ar     1 ZINC000049841054   -0.1100
40     C40     2.7739   -6.6404    7.9210 C.ar     1 ZINC000049841054   -0.1100
41     C41     2.1279   -6.1212    6.8147 C.ar     1 ZINC000049841054   -0.1100
42     C42    -1.0190   -6.0892    3.4012 C.2      1 ZINC000049841054    0.5200
43     O43    -0.5701   -6.1168    2.2748 O.2      1 ZINC000049841054   -0.5200
44     N44    -2.2434   -5.5729    3.6261 N.am     1 ZINC000049841054   -0.7100
45     C45    -3.0749   -5.1416    2.4997 C.3      1 ZINC000049841054    0.1000
46     H46    -2.4405   -4.7173    1.7214 H        1 ZINC000049841054    0.1300
47     C47    -3.8360   -6.3441    1.9379 C.3      1 ZINC000049841054   -0.1200
48     C48    -4.5972   -7.0394    3.0684 C.3      1 ZINC000049841054   -0.1000
49     C49    -5.8836   -6.2669    3.3675 C.3      1 ZINC000049841054   -0.1700
50     C50    -4.9466   -8.4675    2.6451 C.3      1 ZINC000049841054   -0.1500
51     C51    -4.0574   -4.1004    2.9702 C.2      1 ZINC000049841054    0.4000
52     O52    -4.2454   -3.9379    4.1519 O.2      1 ZINC000049841054   -0.4200
53     C53    -4.8053   -3.2618    1.9659 C.3      1 ZINC000049841054   -0.0400
54     C54    -6.3230   -3.4539    1.9397 C.3      1 ZINC000049841054   -0.1300
55     C55    -4.2563   -1.8691    1.6501 C.3      1 ZINC000049841054    0.0000
56     O56    -4.1510   -2.9591    0.7321 O.3      1 ZINC000049841054   -0.3300
57     H57     4.9768  -10.6333    0.5076 H        1 ZINC000049841054    0.0500
58     H58     3.4011  -11.2317    1.0797 H        1 ZINC000049841054    0.0500
59     H59     3.5035   -9.6772    0.2186 H        1 ZINC000049841054    0.0500
60     H60     4.7251  -10.2832    2.9494 H        1 ZINC000049841054    0.0800
61     H61     4.5669   -7.7047    1.3236 H        1 ZINC000049841054    0.0400
62     H62     5.2219   -7.8540    2.9719 H        1 ZINC000049841054    0.0700
63     H63     6.0402   -8.6609    1.6126 H        1 ZINC000049841054    0.0500
64     H64     2.3938   -8.4760    2.1694 H        1 ZINC000049841054    0.0800
65     H65     2.2207  -10.0878    2.9046 H        1 ZINC000049841054    0.0700
66     H66     2.9675  -10.1203    5.6913 H        1 ZINC000049841054    0.4100
67     H67     5.5676   -9.6220    7.8484 H        1 ZINC000049841054    0.0700
68     H68     3.9832  -10.4049    7.6367 H        1 ZINC000049841054    0.0800
69     H69     4.9868  -12.5949    8.2247 H        1 ZINC000049841054    0.0800
70     H70     6.5713  -11.8119    8.4363 H        1 ZINC000049841054    0.0800
71     H71     6.9827  -10.3281   10.3161 H        1 ZINC000049841054    0.1200
72     H72     6.3823   -9.7387   12.6302 H        1 ZINC000049841054    0.1200
73     H73     4.1875  -10.3903   13.5368 H        1 ZINC000049841054    0.1200
74     H74     2.5929  -11.6305   12.1289 H        1 ZINC000049841054    0.1200
75     H75     3.1915  -12.2158    9.8132 H        1 ZINC000049841054    0.1200
76     H76     7.3918  -10.2121    5.6924 H        1 ZINC000049841054    0.4100
77     H77     9.3354  -11.9045    5.1906 H        1 ZINC000049841054    0.0700
78     H78     9.5003  -11.5169    6.9200 H        1 ZINC000049841054    0.1100
79     H79    11.4225  -13.3187    5.6799 H        1 ZINC000049841054    0.0500
80     H80    11.2617  -12.9614    7.4170 H        1 ZINC000049841054    0.0900
81     H81    12.4527  -15.1230    7.0000 H        1 ZINC000049841054    0.1000
82     H82    10.9362  -15.3521    7.9050 H        1 ZINC000049841054    0.0600
83     H83     9.1841  -16.5830    4.9452 H        1 ZINC000049841054    0.1000
84     H84     8.9843  -16.2240    6.6779 H        1 ZINC000049841054    0.0600
85     H85     7.9471  -14.4420    5.3333 H        1 ZINC000049841054    0.1000
86     H86     9.4759  -14.1882    4.4561 H        1 ZINC000049841054    0.0400
87     H87     1.4447   -6.7775    3.2236 H        1 ZINC000049841054    0.4100
88     H88     0.6634   -4.7455    5.1169 H        1 ZINC000049841054    0.0800
89     H89    -0.9102   -5.0869    5.8756 H        1 ZINC000049841054    0.0900
90     H90    -1.0681   -6.5645    7.7981 H        1 ZINC000049841054    0.1200
91     H91     0.0826   -7.4960    9.7657 H        1 ZINC000049841054    0.1200
92     H92     2.5432   -7.5441    9.8446 H        1 ZINC000049841054    0.1200
93     H93     3.8531   -6.6613    7.9557 H        1 ZINC000049841054    0.1100
94     H94     2.7024   -5.7340    5.9861 H        1 ZINC000049841054    0.1100
95     H95    -2.5742   -5.4868    4.5339 H        1 ZINC000049841054    0.4100
96     H96    -4.5417   -6.0053    1.1794 H        1 ZINC000049841054    0.0800
97     H97    -3.1303   -7.0442    1.4907 H        1 ZINC000049841054    0.0900
98     H98    -3.9742   -7.0675    3.9623 H        1 ZINC000049841054    0.0700
99     H99    -6.4123   -6.7466    4.1912 H        1 ZINC000049841054    0.0600
100    H100   -5.6362   -5.2417    3.6426 H        1 ZINC000049841054    0.0600
101    H101   -6.5189   -6.2622    2.4818 H        1 ZINC000049841054    0.0600
102    H102   -4.0302   -9.0178    2.4320 H        1 ZINC000049841054    0.0500
103    H103   -5.4889   -8.9628    3.4505 H        1 ZINC000049841054    0.0600
104    H104   -5.5697   -8.4393    1.7511 H        1 ZINC000049841054    0.0600
105    H105   -6.7307   -3.2625    2.9323 H        1 ZINC000049841054    0.0900
106    H106   -6.7648   -2.7592    1.2253 H        1 ZINC000049841054    0.0800
107    H107   -6.5547   -4.4767    1.6427 H        1 ZINC000049841054    0.0800
108    H108   -4.9732   -1.0803    1.4219 H        1 ZINC000049841054    0.1300
109    H109   -3.3508   -1.5509    2.1668 H        1 ZINC000049841054    0.1200
@<TRIPOS>BOND
1     1     2     1
2     1     57    1
3     1     58    1
4     1     59    1
5     2     3     1
6     2     4     1
7     2     60    1
8     3     61    1
9     3     62    1
10    3     63    1
11    4     5     1
12    4     64    1
13    4     65    1
14    5     6     1
15    5     7     1
16    5     30    1
17    7     8     am
18    7     66    1
19    8     9     2
20    8     10    1
21    10    11    1
22    10    12    1
23    10    20    1
24    12    13    1
25    12    67    1
26    12    68    1
27    13    14    1
28    13    69    1
29    13    70    1
30    14    19    ar
31    14    15    ar
32    15    16    ar
33    15    71    1
34    16    17    ar
35    16    72    1
36    17    18    ar
37    17    73    1
38    18    19    ar
39    18    74    1
40    19    75    1
41    20    21    am
42    20    76    1
43    21    22    2
44    21    23    1
45    23    24    1
46    23    77    1
47    23    78    1
48    24    29    1
49    24    25    1
50    25    26    1
51    25    79    1
52    25    80    1
53    26    27    1
54    26    81    1
55    26    82    1
56    27    28    1
57    28    29    1
58    28    83    1
59    28    84    1
60    29    85    1
61    29    86    1
62    30    31    2
63    30    32    am
64    32    33    1
65    32    87    1
66    33    34    1
67    33    35    1
68    33    42    1
69    35    36    1
70    35    88    1
71    35    89    1
72    36    41    ar
73    36    37    ar
74    37    38    ar
75    37    90    1
76    38    39    ar
77    38    91    1
78    39    40    ar
79    39    92    1
80    40    41    ar
81    40    93    1
82    41    94    1
83    42    43    2
84    42    44    am
85    44    45    1
86    44    95    1
87    45    46    1
88    45    47    1
89    45    51    1
90    47    48    1
91    47    96    1
92    47    97    1
93    48    49    1
94    48    50    1
95    48    98    1
96    49    99    1
97    49    100   1
98    49    101   1
99    50    102   1
100   50    103   1
101   50    104   1
102   51    52    2
103   51    53    1
104   53    56    1
105   53    54    1
106   53    55    1
107   54    105   1
108   54    106   1
109   54    107   1
110   55    56    1
111   55    108   1
112   55    109   1
@<TRIPOS>SUBSTRUCTURE
1   ZINC000049841054 1     RESIDUE    1   A     ZIN   1
