@<TRIPOS>MOLECULE
ZINC000000155905
18   17    0    0    0
SMALL
USER_CHARGES
NO_NAME
@<TRIPOS>ATOM
1 C1       -0.0187     1.5258     0.0104 C.3    1 <0>      -0.1300
2 C2        0.0021    -0.0041     0.0020 C.3    1 <0>      -0.0700
3 H3       -1.0205    -0.3814     0.0098 H      1 <0>       0.1400
4 S4        0.8794    -0.6050     1.4716 S.3    1 <0>      -0.2100
5 C5        0.7074    -0.4901    -1.2379 C.2    1 <0>       0.5000
6 O6        1.6458     0.1342    -1.6858 O.2    1 <0>      -0.5600
7 N7        0.2955    -1.6185    -1.8490 N.am   1 <0>      -0.6800
8 C8        0.9812    -2.0909    -3.0543 C.3    1 <0>       0.0500
9 C9        0.3309    -3.3620    -3.5366 C.2    1 <0>       0.4900
10 O10      -0.6174    -3.8298    -2.9298 O.co2  1 <0>      -0.6900
11 O11       0.7531    -3.9225    -4.5336 O.co2  1 <0>      -0.6900
12 H12       1.0039     1.9031     0.0027 H      1 <0>       0.0600
13 H13      -0.5459     1.8868    -0.8726 H      1 <0>       0.0700
14 H14      -0.5289     1.8773     0.9072 H      1 <0>       0.0800
15 H15       2.1057    -0.0706     1.3315 H      1 <0>       0.0900
16 H16      -0.4550    -2.1178    -1.4907 H      1 <0>       0.4100
17 H17       0.9139    -1.3305    -3.8323 H      1 <0>       0.0700
18 H18       2.0291    -2.2836    -2.8243 H      1 <0>       0.0700
@<TRIPOS>BOND
1    1    2 1
2    1   12 1
3    1   13 1
4    1   14 1
5    2    3 1
6    2    4 1
7    2    5 1
8    4   15 1
9    5    6 2
10    5    7 am
11    7    8 1
12    7   16 1
13    8    9 1
14    8   17 1
15    8   18 1
16    9   10 ar
17    9   11 ar
