@<TRIPOS>MOLECULE
ZINC000000968310
40    43    1     0     0
SMALL
USER_CHARGES
@<TRIPOS>ATOM
1      C1     -0.0178    1.4648    0.0101 C.3      1 ZINC000000968310   -0.0400
2      N2      0.0021   -0.0041    0.0020 N.4      1 ZINC000000968310   -0.3900
3      H3     -0.9430   -0.3575    0.0091 H        1 ZINC000000968310    0.4300
4      C4      0.7034   -0.4849   -1.1997 C.3      1 ZINC000000968310   -0.0100
5      C5      0.6138   -2.0084   -1.2245 C.3      1 ZINC000000968310    0.0400
6      N6      1.2373   -2.5870   -0.0184 N.3      1 ZINC000000968310   -0.4800
7      C7      1.0915   -3.9645   -0.1050 C.ar     1 ZINC000000968310    0.2900
8      N8      0.1784   -4.4488   -0.9466 N.ar     1 ZINC000000968310   -0.5200
9      C9     -0.0387   -5.7438   -1.0609 C.ar     1 ZINC000000968310    0.1200
10     C10     0.6732   -6.6558   -0.3081 C.ar     1 ZINC000000968310   -0.1700
11     C11     1.6439   -6.1915    0.5715 C.ar     1 ZINC000000968310   -0.0500
12     C12     1.8526   -4.8261    0.6510 C.ar     1 ZINC000000968310   -0.1200
13     C13     2.9342   -4.2760    1.5272 C.3      1 ZINC000000968310   -0.0400
14     C14     2.3974   -3.4025    2.6208 C.ar     1 ZINC000000968310   -0.0400
15     C15     2.9363   -3.6525    3.8865 C.ar     1 ZINC000000968310   -0.1100
16     C16     2.5537   -2.9204    4.9863 C.ar     1 ZINC000000968310   -0.1000
17     C17     1.6171   -1.9148    4.8350 C.ar     1 ZINC000000968310   -0.1100
18     C18     1.0818   -1.6717    3.5926 C.ar     1 ZINC000000968310   -0.1300
19     C19     1.4613   -2.4198    2.4708 C.ar     1 ZINC000000968310   -0.0900
20     C20     0.7364   -2.0306    1.2105 C.3      1 ZINC000000968310    0.1400
21     H21    -0.2968   -2.3632    1.3103 H        1 ZINC000000968310    0.0700
22     C22     0.7225   -0.4952    1.1788 C.3      1 ZINC000000968310   -0.0100
23     H23     1.0047    1.8421    0.0024 H        1 ZINC000000968310    0.1200
24     H24    -0.5450    1.8259   -0.8730 H        1 ZINC000000968310    0.1300
25     H25    -0.5280    1.8163    0.9069 H        1 ZINC000000968310    0.1200
26     H26     0.2299   -0.0739   -2.0913 H        1 ZINC000000968310    0.1400
27     H27     1.7488   -0.1784   -1.1630 H        1 ZINC000000968310    0.1400
28     H28    -0.4340   -2.3058   -1.2649 H        1 ZINC000000968310    0.0900
29     H29     1.1274   -2.3839   -2.1095 H        1 ZINC000000968310    0.1300
30     H30    -0.7865   -6.0973   -1.7553 H        1 ZINC000000968310    0.1600
31     H31     0.4785   -7.7140   -0.4008 H        1 ZINC000000968310    0.1500
32     H32     2.2189   -6.8771    1.1762 H        1 ZINC000000968310    0.1500
33     H33     3.4814   -5.1056    1.9750 H        1 ZINC000000968310    0.0900
34     H34     3.6215   -3.6923    0.9148 H        1 ZINC000000968310    0.1000
35     H35     3.6692   -4.4372    4.0031 H        1 ZINC000000968310    0.1300
36     H36     2.9795   -3.1290    5.9567 H        1 ZINC000000968310    0.1300
37     H37     1.3085   -1.3254    5.6858 H        1 ZINC000000968310    0.1300
38     H38     0.3509   -0.8848    3.4786 H        1 ZINC000000968310    0.1200
39     H39     1.7483   -0.1280    1.1486 H        1 ZINC000000968310    0.1400
40     H40     0.2355   -0.1225    2.0799 H        1 ZINC000000968310    0.1500
@<TRIPOS>BOND
1     1     2     1
2     1     23    1
3     1     24    1
4     1     25    1
5     2     3     1
6     2     22    1
7     2     4     1
8     4     5     1
9     4     26    1
10    4     27    1
11    5     6     1
12    5     28    1
13    5     29    1
14    6     20    1
15    6     7     1
16    7     12    ar
17    7     8     ar
18    8     9     ar
19    9     10    ar
20    9     30    1
21    10    11    ar
22    10    31    1
23    11    12    ar
24    11    32    1
25    12    13    1
26    13    14    1
27    13    33    1
28    13    34    1
29    14    19    ar
30    14    15    ar
31    15    16    ar
32    15    35    1
33    16    17    ar
34    16    36    1
35    17    18    ar
36    17    37    1
37    18    19    ar
38    18    38    1
39    19    20    1
40    20    21    1
41    20    22    1
42    22    39    1
43    22    40    1
@<TRIPOS>SUBSTRUCTURE
1   ZINC000000968310 1     RESIDUE    1   A     ZIN   1
