@<TRIPOS>MOLECULE
ZINC000043100709
60    64    1     0     0
SMALL
USER_CHARGES
@<TRIPOS>ATOM
1      C1      3.2187   -3.0002   -2.5994 C.3      1 ZINC000043100709   -0.1700
2      C2      2.3865   -3.3095   -1.3817 C.2      1 ZINC000043100709    0.5100
3      O3      2.9243   -3.6603   -0.3528 O.2      1 ZINC000043100709   -0.5200
4      N4      1.0446   -3.1963   -1.4361 N.am     1 ZINC000043100709   -0.6800
5      C5      0.2651   -3.5798   -0.3392 C.ar     1 ZINC000043100709    0.1500
6      C6      0.7329   -3.3734    0.9523 C.ar     1 ZINC000043100709   -0.1000
7      C7     -0.0361   -3.7523    2.0360 C.ar     1 ZINC000043100709   -0.0900
8      C8     -1.2718   -4.3374    1.8389 C.ar     1 ZINC000043100709   -0.1100
9      C9     -1.7455   -4.5462    0.5497 C.ar     1 ZINC000043100709    0.1500
10     N10    -2.9987   -5.1395    0.3508 N.am     1 ZINC000043100709   -0.4900
11     C11    -4.1035   -4.3732    0.3229 C.2      1 ZINC000043100709    0.7100
12     O12    -3.9818   -3.1731    0.4724 O.2      1 ZINC000043100709   -0.5100
13     N13    -5.3342   -4.8746    0.1368 N.am     1 ZINC000043100709   -0.5300
14     C14    -6.4829   -3.9656    0.1206 C.3      1 ZINC000043100709    0.0600
15     C15    -7.7028   -4.3538    0.9584 C.3      1 ZINC000043100709   -0.1500
16     C16    -6.7995   -3.2042    1.4094 C.3      1 ZINC000043100709   -0.1600
17     C17    -5.5375   -6.1989   -0.0364 C.2      1 ZINC000043100709    0.5800
18     O18    -6.6582   -6.6421   -0.2051 O.2      1 ZINC000043100709   -0.4700
19     C19    -4.3727   -7.0871   -0.0161 C.2      1 ZINC000043100709   -0.2700
20     C20    -4.4862   -8.4633   -0.1858 C.2      1 ZINC000043100709    0.5000
21     N21    -5.7142   -9.0328   -0.3803 N.pl3    1 ZINC000043100709   -0.6800
22     C22    -6.2602   -9.0964   -1.6676 C.ar     1 ZINC000043100709    0.2000
23     C23    -5.5122   -8.6837   -2.7615 C.ar     1 ZINC000043100709   -0.1500
24     C24    -6.0536   -8.7474   -4.0312 C.ar     1 ZINC000043100709   -0.0500
25     C25    -7.3397   -9.2218   -4.2140 C.ar     1 ZINC000043100709   -0.1200
26     I26    -8.1549   -9.3159   -6.1416 I        1 ZINC000043100709   -0.0200
27     C27    -8.0892   -9.6348   -3.1266 C.ar     1 ZINC000043100709   -0.0800
28     C28    -7.5517   -9.5786   -1.8541 C.ar     1 ZINC000043100709    0.0600
29     F29    -8.2832   -9.9817   -0.7922 F        1 ZINC000043100709   -0.1300
30     N30    -3.3677   -9.2406   -0.1576 N.am     1 ZINC000043100709   -0.5000
31     C31    -3.4958  -10.6889   -0.3371 C.3      1 ZINC000043100709    0.0500
32     C32    -2.1487   -8.7057    0.0311 C.2      1 ZINC000043100709    0.5400
33     O33    -1.1701   -9.4351    0.0498 O.2      1 ZINC000043100709   -0.5200
34     C34    -1.9825   -7.3280    0.2060 C.2      1 ZINC000043100709   -0.2400
35     C35    -0.6081   -6.7465    0.4158 C.3      1 ZINC000043100709   -0.1100
36     C36    -3.0907   -6.5072    0.1790 C.2      1 ZINC000043100709    0.2600
37     C37    -0.9785   -4.1617   -0.5403 C.ar     1 ZINC000043100709   -0.1200
38     H38     4.2732   -3.1470   -2.3658 H        1 ZINC000043100709    0.1000
39     H39     2.9312   -3.6645   -3.4144 H        1 ZINC000043100709    0.0900
40     H40     3.0536   -1.9652   -2.8990 H        1 ZINC000043100709    0.0900
41     H41     0.6191   -2.8490   -2.2356 H        1 ZINC000043100709    0.4100
42     H42     1.6988   -2.9165    1.1096 H        1 ZINC000043100709    0.1500
43     H43     0.3299   -3.5911    3.0392 H        1 ZINC000043100709    0.1400
44     H44    -1.8702   -4.6332    2.6880 H        1 ZINC000043100709    0.1300
45     H45    -6.6633   -3.4528   -0.8242 H        1 ZINC000043100709    0.1300
46     H46    -8.6862   -4.0965    0.5649 H        1 ZINC000043100709    0.1100
47     H47    -7.6507   -5.2855    1.5217 H        1 ZINC000043100709    0.1000
48     H48    -6.1531   -3.3796    2.2693 H        1 ZINC000043100709    0.1000
49     H49    -7.1886   -2.1906    1.3125 H        1 ZINC000043100709    0.1100
50     H50    -6.2068   -9.3927    0.3738 H        1 ZINC000043100709    0.4300
51     H51    -4.5078   -8.3127   -2.6203 H        1 ZINC000043100709    0.1300
52     H52    -5.4715   -8.4260   -4.8822 H        1 ZINC000043100709    0.1400
53     H53    -9.0933  -10.0047   -3.2725 H        1 ZINC000043100709    0.1500
54     H54    -3.3331  -10.9409   -1.3850 H        1 ZINC000043100709    0.0900
55     H55    -2.7544  -11.1983    0.2785 H        1 ZINC000043100709    0.1000
56     H56    -4.4953  -11.0050   -0.0383 H        1 ZINC000043100709    0.0900
57     H57     0.1293   -7.5491    0.4195 H        1 ZINC000043100709    0.0800
58     H58    -0.3818   -6.0489   -0.3905 H        1 ZINC000043100709    0.0800
59     H59    -0.5778   -6.2209    1.3702 H        1 ZINC000043100709    0.0800
60     H60    -1.3446   -4.3230   -1.5435 H        1 ZINC000043100709    0.1300
@<TRIPOS>BOND
1     1     2     1
2     1     38    1
3     1     39    1
4     1     40    1
5     2     3     2
6     2     4     am
7     4     5     1
8     4     41    1
9     5     37    ar
10    5     6     ar
11    6     7     ar
12    6     42    1
13    7     8     ar
14    7     43    1
15    8     9     ar
16    8     44    1
17    9     10    1
18    9     37    ar
19    10    36    1
20    10    11    am
21    11    12    2
22    11    13    am
23    13    14    1
24    13    17    am
25    14    16    1
26    14    15    1
27    14    45    1
28    15    16    1
29    15    46    1
30    15    47    1
31    16    48    1
32    16    49    1
33    17    18    2
34    17    19    1
35    19    36    1
36    19    20    2
37    20    21    1
38    20    30    1
39    21    22    1
40    21    50    1
41    22    28    ar
42    22    23    ar
43    23    24    ar
44    23    51    1
45    24    25    ar
46    24    52    1
47    25    26    1
48    25    27    ar
49    27    28    ar
50    27    53    1
51    28    29    1
52    30    31    1
53    30    32    am
54    31    54    1
55    31    55    1
56    31    56    1
57    32    33    2
58    32    34    1
59    34    35    1
60    34    36    2
61    35    57    1
62    35    58    1
63    35    59    1
64    37    60    1
@<TRIPOS>SUBSTRUCTURE
1   ZINC000043100709 1     RESIDUE    1   A     ZIN   1
