@<TRIPOS>MOLECULE
ZINC000096272772
75    78    1     0     0
SMALL
USER_CHARGES
@<TRIPOS>ATOM
1      C1     -0.5446    1.2982   -1.9184 C.3      1 ZINC000096272772   -0.1100
2      C2     -0.4037   -0.0470   -1.2539 C.ar     1 ZINC000096272772   -0.0900
3      C3     -0.0723   -1.1569   -2.0077 C.ar     1 ZINC000096272772   -0.0800
4      C4      0.0577   -2.3959   -1.3973 C.ar     1 ZINC000096272772    0.1500
5      N5      0.3939   -3.5222   -2.1590 N.pl3    1 ZINC000096272772   -0.6200
6      C6      1.1382   -3.3773   -3.3184 C.ar     1 ZINC000096272772    0.5900
7      N7      1.6313   -2.1866   -3.6244 N.ar     1 ZINC000096272772   -0.5700
8      C8      2.3485   -2.0082   -4.7245 C.ar     1 ZINC000096272772    0.2400
9      C9      2.5820   -3.0833   -5.5606 C.ar     1 ZINC000096272772   -0.2400
10     Cl10    3.5167   -2.8934   -7.0111 Cl       1 ZINC000096272772   -0.0300
11     C11     2.0488   -4.3271   -5.2114 C.ar     1 ZINC000096272772    0.4800
12     N12     2.2577   -5.4344   -6.0199 N.pl3    1 ZINC000096272772   -0.6500
13     C13     1.8332   -6.6977   -5.5983 C.ar     1 ZINC000096272772    0.2500
14     C14     1.6234   -6.9467   -4.2481 C.ar     1 ZINC000096272772   -0.1500
15     C15     1.2039   -8.1962   -3.8349 C.ar     1 ZINC000096272772   -0.0400
16     C16     0.9930   -9.1985   -4.7636 C.ar     1 ZINC000096272772   -0.1600
17     C17     1.2011   -8.9539   -6.1089 C.ar     1 ZINC000096272772    0.0000
18     C18     1.6148   -7.7054   -6.5294 C.ar     1 ZINC000096272772   -0.6900
19     S19     1.8790   -7.3947   -8.2435 S.o2     1 ZINC000096272772    2.4800
20     O20     3.1781   -6.8217   -8.2997 O.2      1 ZINC000096272772   -0.9400
21     O21     1.5988   -8.6379   -8.8722 O.2      1 ZINC000096272772   -0.9200
22     C22     0.6206   -6.1631   -8.6795 C.3      1 ZINC000096272772   -0.5700
23     C23     0.6658   -5.8988  -10.1858 C.3      1 ZINC000096272772   -0.1500
24     C24    -0.7635   -6.6902   -8.2955 C.3      1 ZINC000096272772   -0.1400
25     N25     1.3432   -4.4342   -4.0903 N.ar     1 ZINC000096272772   -0.5800
26     C26    -0.1466   -2.5167   -0.0245 C.ar     1 ZINC000096272772    0.1100
27     O27    -0.0201   -3.7287    0.5794 O.3      1 ZINC000096272772   -0.3100
28     C28    -0.2104   -3.7711    1.9950 C.3      1 ZINC000096272772    0.0800
29     C29    -1.7066   -3.8419    2.3066 C.3      1 ZINC000096272772   -0.1800
30     C30     0.4886   -5.0061    2.5668 C.3      1 ZINC000096272772   -0.1500
31     C31    -0.4785   -1.3993    0.7238 C.ar     1 ZINC000096272772   -0.1800
32     C32    -0.6008   -0.1667    0.1094 C.ar     1 ZINC000096272772   -0.0800
33     C33    -0.9620    1.0474    0.9259 C.3      1 ZINC000096272772   -0.0600
34     C34    -2.2764    0.7921    1.6692 C.3      1 ZINC000096272772   -0.1400
35     C35    -2.5961    1.9966    2.5572 C.3      1 ZINC000096272772   -0.0100
36     N36    -1.5134    2.1940    3.5284 N.4      1 ZINC000096272772   -0.5100
37     H37    -1.7520    2.9551    4.1465 H        1 ZINC000096272772    0.4300
38     H38    -1.3888    1.3505    4.0679 H        1 ZINC000096272772    0.4300
39     C39    -0.2646    2.5102    2.8248 C.3      1 ZINC000096272772   -0.0100
40     C40     0.1448    1.3255    1.9471 C.3      1 ZINC000096272772   -0.1400
41     H41     0.3808    1.8615   -1.7983 H        1 ZINC000096272772    0.0700
42     H42    -0.7503    1.1594   -2.9798 H        1 ZINC000096272772    0.0700
43     H43    -1.3662    1.8468   -1.4579 H        1 ZINC000096272772    0.0700
44     H44     0.0850   -1.0598   -3.0718 H        1 ZINC000096272772    0.1600
45     H45     0.1057   -4.4036   -1.8747 H        1 ZINC000096272772    0.4300
46     H46     2.7458   -1.0332   -4.9650 H        1 ZINC000096272772    0.1900
47     H47     2.6984   -5.3322   -6.8779 H        1 ZINC000096272772    0.4300
48     H48     1.7883   -6.1643   -3.5221 H        1 ZINC000096272772    0.1600
49     H49     1.0409   -8.3905   -2.7851 H        1 ZINC000096272772    0.1300
50     H50     0.6654  -10.1747   -4.4378 H        1 ZINC000096272772    0.1400
51     H51     1.0354   -9.7390   -6.8318 H        1 ZINC000096272772    0.1500
52     H52     0.8182   -5.2357   -8.1418 H        1 ZINC000096272772    0.1300
53     H53     0.4682   -6.8262  -10.7234 H        1 ZINC000096272772    0.0800
54     H54    -0.0903   -5.1588  -10.4477 H        1 ZINC000096272772    0.0900
55     H55     1.6518   -5.5233  -10.4593 H        1 ZINC000096272772    0.0700
56     H56    -0.9611   -7.6175   -8.8332 H        1 ZINC000096272772    0.0800
57     H57    -0.7958   -6.8784   -7.2224 H        1 ZINC000096272772    0.0700
58     H58    -1.5197   -5.9501   -8.5574 H        1 ZINC000096272772    0.0800
59     H59     0.2125   -2.8731    2.4455 H        1 ZINC000096272772    0.0700
60     H60    -2.1295   -4.7399    1.8561 H        1 ZINC000096272772    0.0700
61     H61    -1.8518   -3.8742    3.3864 H        1 ZINC000096272772    0.0700
62     H62    -2.2046   -2.9620    1.8993 H        1 ZINC000096272772    0.0600
63     H63     1.5546   -4.9557    2.3448 H        1 ZINC000096272772    0.0700
64     H64     0.3435   -5.0385    3.6466 H        1 ZINC000096272772    0.0800
65     H65     0.0658   -5.9041    2.1163 H        1 ZINC000096272772    0.0700
66     H66    -0.6378   -1.4902    1.7882 H        1 ZINC000096272772    0.1300
67     H67    -1.0755    1.9087    0.2677 H        1 ZINC000096272772    0.1000
68     H68    -3.0806    0.6483    0.9476 H        1 ZINC000096272772    0.1100
69     H69    -2.1775   -0.1000    2.2876 H        1 ZINC000096272772    0.0900
70     H70    -2.6950    2.8880    1.9378 H        1 ZINC000096272772    0.1300
71     H71    -3.5314    1.8183    3.0877 H        1 ZINC000096272772    0.1300
72     H72    -0.4132    3.3907    2.1997 H        1 ZINC000096272772    0.1300
73     H73     0.5213    2.7111    3.5529 H        1 ZINC000096272772    0.1300
74     H74     0.2939    0.4445    2.5713 H        1 ZINC000096272772    0.0900
75     H75     1.0712    1.5630    1.4242 H        1 ZINC000096272772    0.1200
@<TRIPOS>BOND
1     1     2     1
2     1     41    1
3     1     42    1
4     1     43    1
5     2     32    ar
6     2     3     ar
7     3     4     ar
8     3     44    1
9     4     5     1
10    4     26    ar
11    5     6     1
12    5     45    1
13    6     25    ar
14    6     7     ar
15    7     8     ar
16    8     9     ar
17    8     46    1
18    9     10    1
19    9     11    ar
20    11    12    1
21    11    25    ar
22    12    13    1
23    12    47    1
24    13    18    ar
25    13    14    ar
26    14    15    ar
27    14    48    1
28    15    16    ar
29    15    49    1
30    16    17    ar
31    16    50    1
32    17    18    ar
33    17    51    1
34    18    19    1
35    19    20    2
36    19    21    2
37    19    22    1
38    22    23    1
39    22    24    1
40    22    52    1
41    23    53    1
42    23    54    1
43    23    55    1
44    24    56    1
45    24    57    1
46    24    58    1
47    26    27    1
48    26    31    ar
49    27    28    1
50    28    29    1
51    28    30    1
52    28    59    1
53    29    60    1
54    29    61    1
55    29    62    1
56    30    63    1
57    30    64    1
58    30    65    1
59    31    32    ar
60    31    66    1
61    32    33    1
62    33    40    1
63    33    34    1
64    33    67    1
65    34    35    1
66    34    68    1
67    34    69    1
68    35    36    1
69    35    70    1
70    35    71    1
71    36    37    1
72    36    38    1
73    36    39    1
74    39    40    1
75    39    72    1
76    39    73    1
77    40    74    1
78    40    75    1
@<TRIPOS>SUBSTRUCTURE
1   ZINC000096272772 1     RESIDUE    1   A     ZIN   1
