@<TRIPOS>MOLECULE
ZINC000003831430
35   37    0    0    0
SMALL
USER_CHARGES
NO_NAME
@<TRIPOS>ATOM
1 C1       -0.0187     1.5258     0.0104 C.3    1 <0>      -0.1900
2 C2        0.0021    -0.0041     0.0020 C.3    1 <0>       0.0300
3 H3        0.5293    -0.3651     0.8851 H      1 <0>       0.1400
4 N4       -1.3761    -0.5125     0.0124 N.4    1 <0>      -0.6400
5 H5       -1.8641    -0.1783    -0.8050 H      1 <0>       0.4300
6 H6       -1.3624    -1.5214     0.0069 H      1 <0>       0.4300
7 H7       -1.8484    -0.1871     0.8426 H      1 <0>       0.4400
8 C8        0.7182    -0.4975    -1.2568 C.3    1 <0>      -0.0700
9 C9        2.1536     0.0321    -1.2676 C.3    1 <0>      -0.1000
10 C10       2.8697    -0.4613    -2.5264 C.3    1 <0>      -0.0900
11 C11       2.1297     0.0455    -3.7660 C.3    1 <0>      -0.1100
12 C12       0.6944    -0.4841    -3.7551 C.3    1 <0>      -0.0800
13 C13       0.7151    -2.0139    -3.7635 C.3    1 <0>      -0.1200
14 C14       1.4551    -2.5207    -2.5240 C.3    1 <0>      -0.0800
15 C15       2.8905    -1.9912    -2.5349 C.3    1 <0>      -0.1100
16 C16       0.7390    -2.0273    -1.2652 C.3    1 <0>      -0.1200
17 C17      -0.0218     0.0093    -2.4963 C.3    1 <0>      -0.1200
18 H18       1.0039     1.9031     0.0027 H      1 <0>       0.1100
19 H19      -0.5459     1.8868    -0.8726 H      1 <0>       0.0800
20 H20      -0.5289     1.8773     0.9072 H      1 <0>       0.0800
21 H21       2.1388     1.1220    -1.2617 H      1 <0>       0.0800
22 H22       2.6808    -0.3290    -0.3846 H      1 <0>       0.0700
23 H23       3.8923    -0.0840    -2.5342 H      1 <0>       0.0800
24 H24       2.1150     1.1354    -3.7600 H      1 <0>       0.0700
25 H25       2.6399    -0.3060    -4.6628 H      1 <0>       0.0700
26 H26       0.1672    -0.1230    -4.6382 H      1 <0>       0.0800
27 H27      -0.3075    -2.3912    -3.7558 H      1 <0>       0.0600
28 H28       1.2253    -2.3654    -4.6603 H      1 <0>       0.0700
29 H29       1.4699    -3.6106    -2.5300 H      1 <0>       0.0800
30 H30       3.4007    -2.3427    -3.4317 H      1 <0>       0.0700
31 H31       3.4177    -2.3522    -1.6518 H      1 <0>       0.0700
32 H32       1.2661    -2.3884    -0.3821 H      1 <0>       0.0800
33 H33      -0.2836    -2.4046    -1.2575 H      1 <0>       0.0600
34 H34      -1.0444    -0.3679    -2.4886 H      1 <0>       0.0600
35 H35      -0.0366     1.0992    -2.4903 H      1 <0>       0.0800
@<TRIPOS>BOND
1    1    2 1
2    1   18 1
3    1   19 1
4    1   20 1
5    2    3 1
6    2    4 1
7    2    8 1
8    4    5 1
9    4    6 1
10    4    7 1
11    8   16 1
12    8   17 1
13    8    9 1
14    9   10 1
15    9   21 1
16    9   22 1
17   10   15 1
18   10   11 1
19   10   23 1
20   11   12 1
21   11   24 1
22   11   25 1
23   12   13 1
24   12   17 1
25   12   26 1
26   13   14 1
27   13   27 1
28   13   28 1
29   14   15 1
30   14   16 1
31   14   29 1
32   15   30 1
33   15   31 1
34   16   32 1
35   16   33 1
36   17   34 1
37   17   35 1
