@<TRIPOS>MOLECULE
ZINC000008015016
13    12    1     0     0
SMALL
USER_CHARGES
@<TRIPOS>ATOM
1      O1      0.0021   -0.0041    0.0020 O.2      1 ZINC000008015016   -1.0800
2      P2     -0.0189    1.5408    0.0105 P.3      1 ZINC000008015016    2.2500
3      O3      1.4306    2.0755   -0.0005 O.3      1 ZINC000008015016   -1.0800
4      O4     -0.7976    2.0741   -1.2938 O.3      1 ZINC000008015016   -0.9100
5      C5     -0.8722    2.1287    1.5104 C.3      1 ZINC000008015016   -1.3100
6      P6      0.0095    1.5248    2.9873 P.3      1 ZINC000008015016    2.2500
7      O7      0.0305   -0.0201    2.9788 O.2      1 ZINC000008015016   -1.0800
8      O8      1.4590    2.0596    2.9763 O.3      1 ZINC000008015016   -1.0800
9      O9     -0.7440    2.0440    4.3119 O.3      1 ZINC000008015016   -0.9100
10     H10    -0.3982    1.7988   -2.1303 H        1 ZINC000008015016    0.4000
11     H11    -0.8869    3.2186    1.5164 H        1 ZINC000008015016    0.0800
12     H12    -1.8948    1.7514    1.5181 H        1 ZINC000008015016    0.0800
13     H13    -0.3288    1.7597    5.1376 H        1 ZINC000008015016    0.4000
@<TRIPOS>BOND
1     1     2     2
2     2     3     1
3     2     4     1
4     2     5     1
5     4     10    1
6     5     6     1
7     5     11    1
8     5     12    1
9     6     7     2
10    6     8     1
11    6     9     1
12    9     13    1
@<TRIPOS>SUBSTRUCTURE
1   ZINC000008015016 1     RESIDUE    1   A     ZIN   1
