@<TRIPOS>MOLECULE
ZINC000000000751
51    53    1     0     0
SMALL
USER_CHARGES
@<TRIPOS>ATOM
1      C1     -0.0173    1.4248    0.0099 C.3      1 ZINC000000000751    0.0200
2      O2      0.0021   -0.0041    0.0020 O.3      1 ZINC000000000751   -0.3000
3      C3      0.6062   -0.6075   -1.0564 C.ar     1 ZINC000000000751    0.1400
4      C4      1.1721    0.1569   -2.0609 C.ar     1 ZINC000000000751   -0.1700
5      C5      1.7883   -0.4534   -3.1443 C.ar     1 ZINC000000000751   -0.0800
6      C6      1.8332   -1.8291   -3.2205 C.ar     1 ZINC000000000751   -0.1300
7      C7      1.2715   -2.6008   -2.2155 C.ar     1 ZINC000000000751   -0.1500
8      C8      0.6622   -1.9964   -1.1299 C.ar     1 ZINC000000000751    0.1200
9      O9      0.1116   -2.7556   -0.1451 O.3      1 ZINC000000000751   -0.3000
10     C10     0.1976   -4.1741   -0.2947 C.3      1 ZINC000000000751    0.0200
11     C11     2.4816   -2.5304   -4.3921 C.3      1 ZINC000000000751    0.1000
12     H12     2.9915   -3.4296   -4.0464 H        1 ZINC000000000751    0.1500
13     C13     1.3776   -2.9114   -5.3887 C.3      1 ZINC000000000751   -0.1800
14     C14     2.0241   -3.4231   -6.6571 C.2      1 ZINC000000000751    0.3400
15     O15     1.6726   -4.4606   -7.1654 O.2      1 ZINC000000000751   -0.3900
16     C16     3.1292   -2.5839   -7.2656 C.3      1 ZINC000000000751   -0.1600
17     H17     2.7105   -1.6671   -7.6807 H        1 ZINC000000000751    0.1300
18     C18     3.8346   -3.3765   -8.3679 C.3      1 ZINC000000000751   -0.1000
19     C19     2.8549   -3.6405   -9.5130 C.3      1 ZINC000000000751   -0.1100
20     C20     2.4575   -2.3124  -10.1605 C.3      1 ZINC000000000751   -0.1500
21     C21     3.5212   -4.5380  -10.5577 C.3      1 ZINC000000000751   -0.1500
22     C22     4.1252   -2.2419   -6.1521 C.3      1 ZINC000000000751    0.0000
23     N23     3.4472   -1.6241   -5.0171 N.4      1 ZINC000000000751   -0.3800
24     H24     4.1437   -1.3663   -4.3340 H        1 ZINC000000000751    0.4300
25     C25     2.7295   -0.4100   -5.4226 C.3      1 ZINC000000000751   -0.0200
26     C26     2.3986    0.4230   -4.2084 C.3      1 ZINC000000000751   -0.1000
27     H27     1.0053    1.8021    0.0021 H        1 ZINC000000000751    0.0600
28     H28    -0.5445    1.7859   -0.8732 H        1 ZINC000000000751    0.0600
29     H29    -0.5275    1.7763    0.9067 H        1 ZINC000000000751    0.1100
30     H30     1.1339    1.2346   -2.0019 H        1 ZINC000000000751    0.1500
31     H31     1.3127   -3.6782   -2.2781 H        1 ZINC000000000751    0.1500
32     H32    -0.3076   -4.4740   -1.2128 H        1 ZINC000000000751    0.0600
33     H33     1.2452   -4.4715   -0.3427 H        1 ZINC000000000751    0.0600
34     H34    -0.2790   -4.6589    0.5573 H        1 ZINC000000000751    0.1100
35     H35     0.7497   -3.6914   -4.9581 H        1 ZINC000000000751    0.1400
36     H36     0.7713   -2.0344   -5.6155 H        1 ZINC000000000751    0.1300
37     H37     4.6836   -2.8036   -8.7409 H        1 ZINC000000000751    0.0800
38     H38     4.1862   -4.3261   -7.9644 H        1 ZINC000000000751    0.0800
39     H39     1.9653   -4.1352   -9.1233 H        1 ZINC000000000751    0.0900
40     H40     3.3471   -1.8177  -10.5503 H        1 ZINC000000000751    0.0600
41     H41     1.7595   -2.5005  -10.9763 H        1 ZINC000000000751    0.0600
42     H42     1.9827   -1.6730   -9.4163 H        1 ZINC000000000751    0.0500
43     H43     3.8043   -5.4841  -10.0964 H        1 ZINC000000000751    0.0600
44     H44     2.8232   -4.7260  -11.3735 H        1 ZINC000000000751    0.0600
45     H45     4.4108   -4.0432  -10.9474 H        1 ZINC000000000751    0.0600
46     H46     4.6132   -3.1549   -5.8110 H        1 ZINC000000000751    0.1400
47     H47     4.8781   -1.5553   -6.5392 H        1 ZINC000000000751    0.1500
48     H48     3.3501    0.1741   -6.1023 H        1 ZINC000000000751    0.1400
49     H49     1.7971   -0.6820   -5.9173 H        1 ZINC000000000751    0.1300
50     H50     1.6945    1.2064   -4.4888 H        1 ZINC000000000751    0.1300
51     H51     3.3105    0.8803   -3.8246 H        1 ZINC000000000751    0.1100
@<TRIPOS>BOND
1     1     2     1
2     1     27    1
3     1     28    1
4     1     29    1
5     2     3     1
6     3     8     ar
7     3     4     ar
8     4     5     ar
9     4     30    1
10    5     26    1
11    5     6     ar
12    6     7     ar
13    6     11    1
14    7     8     ar
15    7     31    1
16    8     9     1
17    9     10    1
18    10    32    1
19    10    33    1
20    10    34    1
21    11    12    1
22    11    23    1
23    11    13    1
24    13    14    1
25    13    35    1
26    13    36    1
27    14    15    2
28    14    16    1
29    16    17    1
30    16    18    1
31    16    22    1
32    18    19    1
33    18    37    1
34    18    38    1
35    19    20    1
36    19    21    1
37    19    39    1
38    20    40    1
39    20    41    1
40    20    42    1
41    21    43    1
42    21    44    1
43    21    45    1
44    22    23    1
45    22    46    1
46    22    47    1
47    23    24    1
48    23    25    1
49    25    26    1
50    25    48    1
51    25    49    1
52    26    50    1
53    26    51    1
@<TRIPOS>SUBSTRUCTURE
1   ZINC000000000751 1     RESIDUE    1   A     ZIN   1
