@<TRIPOS>MOLECULE
ZINC000003781664
32   33    0    0    0
SMALL
USER_CHARGES
NO_NAME
@<TRIPOS>ATOM
1 C1       -0.0187     1.5258     0.0104 C.3    1 <0>      -0.1600
2 C2        0.0021    -0.0041     0.0020 C.3    1 <0>      -0.1500
3 C3       -1.4333    -0.5336     0.0129 C.3    1 <0>      -0.0100
4 N4       -1.4134    -2.0025     0.0048 N.4    1 <0>      -0.5100
5 H5       -0.9411    -2.3279    -0.8254 H      1 <0>       0.4300
6 H6       -0.9254    -2.3367     0.8222 H      1 <0>       0.4300
7 C7       -2.7915    -2.5110     0.0152 C.3    1 <0>       0.0300
8 H8       -3.3457    -2.0800    -0.8186 H      1 <0>       0.1500
9 C9       -2.7759    -4.0369    -0.1139 C.3    1 <0>      -0.1400
10 C10      -4.1999    -4.5416    -0.3570 C.3    1 <0>      -0.0400
11 C11      -5.1163    -3.9491     0.7031 C.2    1 <0>       0.1300
12 C12      -4.7749    -2.8809     1.4425 C.2    1 <0>      -0.3100
13 C13      -3.4699    -2.1272     1.3349 C.3    1 <0>      -0.0400
14 S14      -6.0957    -2.5121     2.5439 S.3    1 <0>       0.1300
15 C15      -6.9967    -3.8231     1.9196 C.2    1 <0>       0.3400
16 N16      -8.2650    -4.1884     2.3430 N.pl3  1 <0>      -0.8100
17 N17      -6.3227    -4.4242     0.9941 N.2    1 <0>      -0.5600
18 H18       1.0039     1.9031     0.0027 H      1 <0>       0.0800
19 H19      -0.5459     1.8868    -0.8726 H      1 <0>       0.0700
20 H20      -0.5289     1.8773     0.9072 H      1 <0>       0.0700
21 H21       0.5123    -0.3556    -0.8948 H      1 <0>       0.0900
22 H22       0.5293    -0.3651     0.8851 H      1 <0>       0.0900
23 H23      -1.9435    -0.1821     0.9097 H      1 <0>       0.1300
24 H24      -1.9605    -0.1726    -0.8702 H      1 <0>       0.1300
25 H25      -2.1404    -4.3244    -0.9515 H      1 <0>       0.1000
26 H26      -2.3868    -4.4755     0.8050 H      1 <0>       0.1000
27 H27      -4.5347    -4.2285    -1.3460 H      1 <0>       0.1000
28 H28      -4.2186    -5.6293    -0.2898 H      1 <0>       0.1100
29 H29      -2.8216    -2.3972     2.1685 H      1 <0>       0.0900
30 H30      -3.6642    -1.0548     1.3517 H      1 <0>       0.1000
31 H31      -8.7057    -3.6847     3.0451 H      1 <0>       0.4200
32 H32      -8.7118    -4.9478     1.9373 H      1 <0>       0.4200
@<TRIPOS>BOND
1    1    2 1
2    1   18 1
3    1   19 1
4    1   20 1
5    2    3 1
6    2   21 1
7    2   22 1
8    3    4 1
9    3   23 1
10    3   24 1
11    4    5 1
12    4    6 1
13    4    7 1
14    7    8 1
15    7   13 1
16    7    9 1
17    9   10 1
18    9   25 1
19    9   26 1
20   10   11 1
21   10   27 1
22   10   28 1
23   11   17 1
24   11   12 2
25   12   13 1
26   12   14 1
27   13   29 1
28   13   30 1
29   14   15 1
30   15   16 1
31   15   17 2
32   16   31 1
33   16   32 1
