@<TRIPOS>MOLECULE
ZINC000000006427
33    35    1     0     0
SMALL
USER_CHARGES
@<TRIPOS>ATOM
1      C1      0.5640    1.4221    0.1925 C.3      1 ZINC000000006427    0.0600
2      N2      0.3231   -0.0203    0.1047 N.am     1 ZINC000000006427   -0.5600
3      C3     -0.9930   -0.4532    0.1625 C.ar     1 ZINC000000006427    0.1800
4      C4     -1.9458    0.2984   -0.5275 C.ar     1 ZINC000000006427   -0.1300
5      C5     -3.2738   -0.0681   -0.5152 C.ar     1 ZINC000000006427   -0.0700
6      C6     -3.6779   -1.1923    0.1871 C.ar     1 ZINC000000006427   -0.0500
7      Cl7    -5.3522   -1.6509    0.2020 Cl       1 ZINC000000006427   -0.0500
8      C8     -2.7517   -1.9460    0.8727 C.ar     1 ZINC000000006427   -0.0500
9      C9     -1.3959   -1.5851    0.8686 C.ar     1 ZINC000000006427   -0.1200
10     C10    -0.4609   -2.4383    1.6187 C.2      1 ZINC000000006427    0.2700
11     C11    -0.9076   -2.9532    2.9340 C.ar     1 ZINC000000006427   -0.0700
12     C12    -0.3328   -4.1073    3.4660 C.ar     1 ZINC000000006427   -0.0700
13     C13    -0.7527   -4.5817    4.6918 C.ar     1 ZINC000000006427   -0.1300
14     C14    -1.7421   -3.9154    5.3926 C.ar     1 ZINC000000006427   -0.1000
15     C15    -2.3164   -2.7704    4.8699 C.ar     1 ZINC000000006427   -0.1200
16     C16    -1.9005   -2.2827    3.6479 C.ar     1 ZINC000000006427   -0.0900
17     N17     0.7148   -2.7707    1.2179 N.2      1 ZINC000000006427   -0.4900
18     C18     1.2534   -2.3103   -0.0613 C.3      1 ZINC000000006427    0.0200
19     C19     1.3844   -0.8125   -0.0297 C.2      1 ZINC000000006427    0.5100
20     O20     2.4862   -0.3139   -0.1217 O.2      1 ZINC000000006427   -0.5100
21     H21     1.6347    1.6162    0.1294 H        1 ZINC000000006427    0.1000
22     H22     0.0543    1.9262   -0.6286 H        1 ZINC000000006427    0.0700
23     H23     0.1821    1.7971    1.1421 H        1 ZINC000000006427    0.0700
24     H24    -1.6388    1.1764   -1.0764 H        1 ZINC000000006427    0.1500
25     H25    -4.0010    0.5218   -1.0533 H        1 ZINC000000006427    0.1500
26     H26    -3.0715   -2.8213    1.4185 H        1 ZINC000000006427    0.1500
27     H27     0.4391   -4.6287    2.9196 H        1 ZINC000000006427    0.1300
28     H28    -0.3084   -5.4753    5.1048 H        1 ZINC000000006427    0.1300
29     H29    -2.0678   -4.2908    6.3514 H        1 ZINC000000006427    0.1300
30     H30    -3.0886   -2.2548    5.4214 H        1 ZINC000000006427    0.1300
31     H31    -2.3495   -1.3888    3.2409 H        1 ZINC000000006427    0.1300
32     H32     2.2328   -2.7588   -0.2277 H        1 ZINC000000006427    0.1300
33     H33     0.5771   -2.5971   -0.8666 H        1 ZINC000000006427    0.0900
@<TRIPOS>BOND
1     1     2     1
2     1     21    1
3     1     22    1
4     1     23    1
5     2     19    am
6     2     3     1
7     3     9     ar
8     3     4     ar
9     4     5     ar
10    4     24    1
11    5     6     ar
12    5     25    1
13    6     7     1
14    6     8     ar
15    8     9     ar
16    8     26    1
17    9     10    1
18    10    11    1
19    10    17    2
20    11    16    ar
21    11    12    ar
22    12    13    ar
23    12    27    1
24    13    14    ar
25    13    28    1
26    14    15    ar
27    14    29    1
28    15    16    ar
29    15    30    1
30    16    31    1
31    17    18    1
32    18    19    1
33    18    32    1
34    18    33    1
35    19    20    2
@<TRIPOS>SUBSTRUCTURE
1   ZINC000000006427 1     RESIDUE    1   A     ZIN   1
