@<TRIPOS>MOLECULE
ZINC000009212428
54    56    1     0     0
SMALL
USER_CHARGES
@<TRIPOS>ATOM
1      N1     -0.0050    1.3670   -0.0309 N.pl3    1 ZINC000009212428   -0.8400
2      C2      0.0107   -0.0040   -0.0284 C.2      1 ZINC000009212428    0.6000
3      N3     -1.1311   -0.6588   -0.0162 N.2      1 ZINC000009212428   -0.6800
4      C4     -1.1585   -1.9963   -0.0134 C.2      1 ZINC000009212428    0.4400
5      C5      0.0350   -2.7072   -0.0208 C.2      1 ZINC000009212428   -0.2100
6      C6      1.2452   -2.0042   -0.0344 C.2      1 ZINC000009212428    0.5300
7      O7      2.3123   -2.5983   -0.0428 O.2      1 ZINC000009212428   -0.6200
8      N8      1.2063   -0.6539   -0.0441 N.pl3    1 ZINC000009212428   -0.7000
9      N9      0.0188   -4.1165   -0.0122 N.am     1 ZINC000009212428   -0.5100
10     C10     1.1269   -4.8165    0.3015 C.2      1 ZINC000009212428    0.4700
11     O11     1.0772   -6.0260    0.3842 O.2      1 ZINC000009212428   -0.6000
12     C12    -1.2358   -4.8063   -0.3532 C.3      1 ZINC000009212428    0.1000
13     H13    -1.1836   -5.8463   -0.0310 H        1 ZINC000009212428    0.1100
14     C14    -1.4656   -4.7443   -1.8646 C.3      1 ZINC000009212428    0.1300
15     N15    -0.2962   -5.2889   -2.5590 N.pl3    1 ZINC000009212428   -0.7300
16     C16    -0.2729   -5.3374   -3.9484 C.ar     1 ZINC000009212428    0.2400
17     C17    -1.3593   -4.8627   -4.6783 C.ar     1 ZINC000009212428   -0.2100
18     C18    -1.3392   -4.9093   -6.0535 C.ar     1 ZINC000009212428   -0.0200
19     C19    -0.2265   -5.4340   -6.7175 C.ar     1 ZINC000009212428   -0.1800
20     C20    -0.2016   -5.4850   -8.1916 C.2      1 ZINC000009212428    0.5600
21     O21    -1.1495   -5.0704   -8.8304 O.2      1 ZINC000009212428   -0.5700
22     N22     0.8719   -5.9911   -8.8303 N.am     1 ZINC000009212428   -0.6800
23     C23     0.8966   -6.0417  -10.2942 C.3      1 ZINC000009212428    0.0700
24     H24     0.3810   -5.1697  -10.6967 H        1 ZINC000009212428    0.0800
25     C25     2.3475   -6.0455  -10.7800 C.3      1 ZINC000009212428   -0.0800
26     C26     3.0128   -4.7184  -10.4095 C.3      1 ZINC000009212428   -0.1800
27     C27     4.4418   -4.7221  -10.8880 C.2      1 ZINC000009212428    0.4900
28     O28     4.8869   -5.6959  -11.4711 O.co2    1 ZINC000009212428   -0.7000
29     O29     5.1529   -3.7514  -10.6918 O.co2    1 ZINC000009212428   -0.7200
30     C30     0.2059   -7.2955  -10.7653 C.2      1 ZINC000009212428    0.5000
31     O31    -0.2635   -8.0746   -9.9534 O.co2    1 ZINC000009212428   -0.7000
32     O32     0.1165   -7.5308  -11.9582 O.co2    1 ZINC000009212428   -0.7100
33     C33     0.8627   -5.9098   -5.9817 C.ar     1 ZINC000009212428   -0.0300
34     C34     0.8390   -5.8553   -4.6069 C.ar     1 ZINC000009212428   -0.2000
35     C35    -2.3839   -4.0940    0.3768 C.3      1 ZINC000009212428    0.1400
36     N36    -2.3653   -2.6747   -0.0051 N.pl3    1 ZINC000009212428   -0.7300
37     H37     0.8293    1.8616   -0.0437 H        1 ZINC000009212428    0.4000
38     H38    -0.8505    1.8423   -0.0239 H        1 ZINC000009212428    0.4000
39     H39     2.0591   -4.3009    0.4793 H        1 ZINC000009212428    0.1700
40     H40    -2.3472   -5.3311   -2.1224 H        1 ZINC000009212428    0.0600
41     H41    -1.6176   -3.7082   -2.1668 H        1 ZINC000009212428    0.0700
42     H42     0.4618   -5.6157   -2.0495 H        1 ZINC000009212428    0.4000
43     H43    -2.2188   -4.4579   -4.1648 H        1 ZINC000009212428    0.1200
44     H44    -2.1824   -4.5413   -6.6192 H        1 ZINC000009212428    0.1300
45     H45     1.6281   -6.3218   -8.3207 H        1 ZINC000009212428    0.3900
46     H46     2.8866   -6.8665  -10.3075 H        1 ZINC000009212428    0.0500
47     H47     2.3679   -6.1725  -11.8623 H        1 ZINC000009212428    0.0800
48     H48     2.4736   -3.8973  -10.8820 H        1 ZINC000009212428    0.0500
49     H49     2.9923   -4.5914   -9.3272 H        1 ZINC000009212428    0.0500
50     H50     1.7237   -6.3160   -6.4918 H        1 ZINC000009212428    0.1200
51     H51     1.6804   -6.2224   -4.0378 H        1 ZINC000009212428    0.1200
52     H52    -3.3356   -4.5398    0.0876 H        1 ZINC000009212428    0.0900
53     H53    -2.2470   -4.1860    1.4543 H        1 ZINC000009212428    0.0600
54     H54    -3.1869   -2.2200   -0.2482 H        1 ZINC000009212428    0.4000
@<TRIPOS>BOND
1     1     2     1
2     1     37    1
3     1     38    1
4     2     8     1
5     2     3     2
6     3     4     1
7     4     36    1
8     4     5     2
9     5     6     1
10    5     9     1
11    6     7     2
12    6     8     1
13    9     10    am
14    9     12    1
15    10    11    2
16    10    39    1
17    12    13    1
18    12    14    1
19    12    35    1
20    14    15    1
21    14    40    1
22    14    41    1
23    15    16    1
24    15    42    1
25    16    34    ar
26    16    17    ar
27    17    18    ar
28    17    43    1
29    18    19    ar
30    18    44    1
31    19    20    1
32    19    33    ar
33    20    21    2
34    20    22    am
35    22    23    1
36    22    45    1
37    23    24    1
38    23    25    1
39    23    30    1
40    25    26    1
41    25    46    1
42    25    47    1
43    26    27    1
44    26    48    1
45    26    49    1
46    27    28    ar
47    27    29    ar
48    30    31    ar
49    30    32    ar
50    33    34    ar
51    33    50    1
52    34    51    1
53    35    36    1
54    35    52    1
55    35    53    1
56    36    54    1
@<TRIPOS>SUBSTRUCTURE
1   ZINC000009212428 1     RESIDUE    1   A     ZIN   1
