@<TRIPOS>MOLECULE
ZINC000000120286
30    32    1     0     0
SMALL
USER_CHARGES
@<TRIPOS>ATOM
1      N1     -0.0775    1.3617   -0.0102 N.pl3    1 ZINC000000120286   -0.8100
2      C2     -0.0342   -0.0183    0.0514 C.ar     1 ZINC000000120286    0.6400
3      N3     -1.1590   -0.6804    0.3038 N.ar     1 ZINC000000120286   -0.6400
4      C4     -1.1794   -2.0034    0.3749 C.ar     1 ZINC000000120286    0.5500
5      N5     -2.3525   -2.6783    0.6369 N.pl3    1 ZINC000000120286   -0.8000
6      C6      0.0351   -2.7087    0.1744 C.ar     1 ZINC000000120286   -0.1500
7      N7      0.0878   -4.0382    0.2311 N.ar     1 ZINC000000120286   -0.3400
8      C8      1.2394   -4.6561    0.0380 C.ar     1 ZINC000000120286    0.0500
9      C9      1.3021   -6.1352    0.1003 C.ar     1 ZINC000000120286   -0.0300
10     C10     2.3407   -6.7635    0.7867 C.ar     1 ZINC000000120286   -0.1200
11     C11     2.3935   -8.1413    0.8416 C.ar     1 ZINC000000120286   -0.1100
12     C12     1.4187   -8.8990    0.2175 C.ar     1 ZINC000000120286   -0.1100
13     C13     0.3859   -8.2814   -0.4649 C.ar     1 ZINC000000120286   -0.1200
14     C14     0.3195   -6.9043   -0.5223 C.ar     1 ZINC000000120286   -0.0800
15     C15     2.4132   -3.9121   -0.2284 C.ar     1 ZINC000000120286    0.4500
16     N16     3.6125   -4.5694   -0.4297 N.pl3    1 ZINC000000120286   -0.8200
17     N17     2.3696   -2.5931   -0.2864 N.ar     1 ZINC000000120286   -0.5200
18     C18     1.2085   -1.9601   -0.0918 C.ar     1 ZINC000000120286    0.4300
19     N19     1.1216   -0.6249   -0.1481 N.ar     1 ZINC000000120286   -0.6100
20     H20     0.7308    1.8644   -0.1969 H        1 ZINC000000120286    0.4200
21     H21    -0.9169    1.8273    0.1293 H        1 ZINC000000120286    0.4200
22     H22    -3.1764   -2.1844    0.7718 H        1 ZINC000000120286    0.4100
23     H23    -2.3541   -3.6470    0.6864 H        1 ZINC000000120286    0.4200
24     H24     3.1024   -6.1730    1.2740 H        1 ZINC000000120286    0.1300
25     H25     3.1976   -8.6291    1.3725 H        1 ZINC000000120286    0.1300
26     H26     1.4644   -9.9771    0.2629 H        1 ZINC000000120286    0.1300
27     H27    -0.3722   -8.8782   -0.9502 H        1 ZINC000000120286    0.1300
28     H28    -0.4874   -6.4232   -1.0551 H        1 ZINC000000120286    0.1300
29     H29     3.6280   -5.5357   -0.5128 H        1 ZINC000000120286    0.4200
30     H30     4.4386   -4.0643   -0.4878 H        1 ZINC000000120286    0.4100
@<TRIPOS>BOND
1     1     2     1
2     1     20    1
3     1     21    1
4     2     19    ar
5     2     3     ar
6     3     4     ar
7     4     5     1
8     4     6     ar
9     5     22    1
10    5     23    1
11    6     18    ar
12    6     7     ar
13    7     8     ar
14    8     9     1
15    8     15    ar
16    9     14    ar
17    9     10    ar
18    10    11    ar
19    10    24    1
20    11    12    ar
21    11    25    1
22    12    13    ar
23    12    26    1
24    13    14    ar
25    13    27    1
26    14    28    1
27    15    16    1
28    15    17    ar
29    16    29    1
30    16    30    1
31    17    18    ar
32    18    19    ar
@<TRIPOS>SUBSTRUCTURE
1   ZINC000000120286 1     RESIDUE    1   A     ZIN   1
