@<TRIPOS>MOLECULE
ZINC000001530912
48    50    1     0     0
SMALL
USER_CHARGES
@<TRIPOS>ATOM
1      C1     -1.1621    1.9328    0.3269 C.3      1 ZINC000001530912   -0.1500
2      C2     -0.8968    0.4487    0.0659 C.3      1 ZINC000001530912    0.0600
3      O3     -2.1272   -0.2746    0.1357 O.3      1 ZINC000001530912   -0.3800
4      C4     -1.9901   -1.6783   -0.0947 C.3      1 ZINC000001530912    0.0500
5      C5     -3.3624   -2.3476    0.0038 C.3      1 ZINC000001530912    0.1000
6      N6     -3.2073   -3.7995   -0.1159 N.pl3    1 ZINC000001530912   -0.5100
7      C7     -3.1189   -4.5219   -1.2947 C.ar     1 ZINC000001530912    0.0500
8      C8     -3.1431   -4.1776   -2.6373 C.ar     1 ZINC000001530912   -0.1100
9      C9     -3.0296   -5.1595   -3.6003 C.ar     1 ZINC000001530912   -0.1000
10     C10    -2.8918   -6.4898   -3.2342 C.ar     1 ZINC000001530912   -0.1300
11     C11    -2.8663   -6.8499   -1.9051 C.ar     1 ZINC000001530912   -0.0600
12     C12    -2.9791   -5.8681   -0.9182 C.ar     1 ZINC000001530912    0.0500
13     N13    -2.9878   -5.9062    0.4403 N.2      1 ZINC000001530912   -0.4600
14     C14    -3.1169   -4.6918    0.9136 C.2      1 ZINC000001530912    0.4600
15     N15    -3.1623   -4.3640    2.2523 N.3      1 ZINC000001530912   -0.4600
16     C16    -4.4923   -3.8340    2.6234 C.3      1 ZINC000001530912    0.0700
17     C17    -4.7201   -4.0978    4.0906 C.3      1 ZINC000001530912   -0.1200
18     C18    -4.2756   -2.9156    4.9665 C.3      1 ZINC000001530912    0.0600
19     N19    -2.9954   -2.3256    4.5133 N.3      1 ZINC000001530912   -0.5600
20     C20    -2.4550   -1.4032    5.5209 C.3      1 ZINC000001530912    0.0300
21     C21    -2.0057   -3.3048    4.1235 C.3      1 ZINC000001530912    0.0700
22     C22    -2.0962   -3.5257    2.6000 C.3      1 ZINC000001530912    0.0600
23     H23    -0.2236    2.4845    0.2737 H        1 ZINC000001530912    0.0700
24     H24    -1.8521    2.3162   -0.4247 H        1 ZINC000001530912    0.0600
25     H25    -1.5996    2.0549    1.3177 H        1 ZINC000001530912    0.0600
26     H26    -0.4592    0.3266   -0.9249 H        1 ZINC000001530912    0.0500
27     H27    -0.2068    0.0653    0.8176 H        1 ZINC000001530912    0.0500
28     H28    -1.5752   -1.8445   -1.0888 H        1 ZINC000001530912    0.0600
29     H29    -1.3228   -2.1058    0.6537 H        1 ZINC000001530912    0.0600
30     H30    -3.8150   -2.1087    0.9661 H        1 ZINC000001530912    0.1100
31     H31    -4.0029   -1.9832   -0.7994 H        1 ZINC000001530912    0.1000
32     H32    -3.2508   -3.1434   -2.9289 H        1 ZINC000001530912    0.1200
33     H33    -3.0485   -4.8901   -4.6460 H        1 ZINC000001530912    0.1300
34     H34    -2.8042   -7.2493   -3.9970 H        1 ZINC000001530912    0.1300
35     H35    -2.7587   -7.8879   -1.6269 H        1 ZINC000001530912    0.1300
36     H36    -4.5245   -2.7609    2.4349 H        1 ZINC000001530912    0.0600
37     H37    -5.2628   -4.3350    2.0373 H        1 ZINC000001530912    0.0800
38     H38    -5.7816   -4.2820    4.2566 H        1 ZINC000001530912    0.0800
39     H39    -4.1586   -4.9853    4.3821 H        1 ZINC000001530912    0.0800
40     H40    -5.0476   -2.1466    4.9394 H        1 ZINC000001530912    0.0700
41     H41    -4.1607   -3.2614    5.9938 H        1 ZINC000001530912    0.0400
42     H42    -2.2809   -1.9432    6.4516 H        1 ZINC000001530912    0.0300
43     H43    -1.5147   -0.9842    5.1626 H        1 ZINC000001530912    0.0700
44     H44    -3.1684   -0.5979    5.6960 H        1 ZINC000001530912    0.0700
45     H45    -1.0110   -2.9412    4.3813 H        1 ZINC000001530912    0.0800
46     H46    -2.1984   -4.2446    4.6408 H        1 ZINC000001530912    0.0600
47     H47    -1.1655   -3.9731    2.2512 H        1 ZINC000001530912    0.0800
48     H48    -2.2294   -2.5614    2.1096 H        1 ZINC000001530912    0.0500
@<TRIPOS>BOND
1     1     2     1
2     1     23    1
3     1     24    1
4     1     25    1
5     2     3     1
6     2     26    1
7     2     27    1
8     3     4     1
9     4     5     1
10    4     28    1
11    4     29    1
12    5     6     1
13    5     30    1
14    5     31    1
15    6     14    1
16    6     7     1
17    7     12    ar
18    7     8     ar
19    8     9     ar
20    8     32    1
21    9     10    ar
22    9     33    1
23    10    11    ar
24    10    34    1
25    11    12    ar
26    11    35    1
27    12    13    1
28    13    14    2
29    14    15    1
30    15    22    1
31    15    16    1
32    16    17    1
33    16    36    1
34    16    37    1
35    17    18    1
36    17    38    1
37    17    39    1
38    18    19    1
39    18    40    1
40    18    41    1
41    19    20    1
42    19    21    1
43    20    42    1
44    20    43    1
45    20    44    1
46    21    22    1
47    21    45    1
48    21    46    1
49    22    47    1
50    22    48    1
@<TRIPOS>SUBSTRUCTURE
1   ZINC000001530912 1     RESIDUE    1   A     ZIN   1
