@<TRIPOS>MOLECULE
ZINC000002008310
41   43    0    0    0
SMALL
USER_CHARGES
NO_NAME
@<TRIPOS>ATOM
1 C1        0.2537     1.5002    -0.0181 C.3    1 <0>      -0.1200
2 C2        0.2032    -0.0060    -0.0191 C.ar   1 <0>      -0.0700
3 C3        1.0643    -0.7241     0.7926 C.ar   1 <0>      -0.1300
4 C4        1.0246    -2.1022     0.7975 C.ar   1 <0>      -0.0500
5 C5        0.1101    -2.7748    -0.0207 C.ar   1 <0>      -0.1000
6 C6        0.0605    -4.2442    -0.0213 C.2    1 <0>       0.0000
7 C7        0.1779    -4.9259     1.1422 C.2    1 <0>      -0.2100
8 C8        0.1848    -4.3729     2.4516 C.2    1 <0>       0.3900
9 O9        0.0862    -3.1979     2.7422 O.2    1 <0>      -0.4300
10 C10       0.3403    -5.5470     3.4274 C.3    1 <0>      -0.1100
11 C11      -0.0943    -5.2860     4.8709 C.3    1 <0>      -0.1200
12 C12       1.8075    -6.0336     3.2125 C.3    1 <0>      -0.1100
13 C13       1.8000    -6.6355     1.7872 C.3    1 <0>      -0.1200
14 C14       0.3224    -6.4452     1.3022 C.3    1 <0>      -0.0500
15 H15       0.0112    -7.0612     0.4585 H      1 <0>       0.1100
16 C16      -0.4490    -6.6605     2.6495 C.3    1 <0>      -0.0600
17 C17      -0.2143    -8.0536     3.2370 C.3    1 <0>      -0.1400
18 C18      -1.9388    -6.3353     2.5243 C.3    1 <0>      -0.1400
19 C19      -0.7572    -2.0413    -0.8380 C.ar   1 <0>      -0.0900
20 C20      -0.7079    -0.6636    -0.8276 C.ar   1 <0>      -0.1300
21 H21      -0.4251     1.8859     0.7425 H      1 <0>       0.0700
22 H22       1.2695     1.8295     0.2007 H      1 <0>       0.0700
23 H23      -0.0467     1.8744    -0.9968 H      1 <0>       0.0700
24 H24       1.7695    -0.2034     1.4235 H      1 <0>       0.1200
25 H25       1.6976    -2.6610     1.4309 H      1 <0>       0.1200
26 H26      -0.0695    -4.7797    -0.9502 H      1 <0>       0.1400
27 H27      -1.1458    -4.9994     4.8876 H      1 <0>       0.0600
28 H28       0.0449    -6.1914     5.4616 H      1 <0>       0.0700
29 H29       0.5084    -4.4812     5.2919 H      1 <0>       0.0600
30 H30       2.5003    -5.1939     3.2688 H      1 <0>       0.0700
31 H31       2.0687    -6.7952     3.9473 H      1 <0>       0.0800
32 H32       2.4891    -6.0929     1.1400 H      1 <0>       0.0700
33 H33       2.0574    -7.6942     1.8185 H      1 <0>       0.0800
34 H34       0.8522    -8.2011     3.4073 H      1 <0>       0.0700
35 H35      -0.7492    -8.1441     4.1824 H      1 <0>       0.0600
36 H36      -0.5786    -8.8081     2.5397 H      1 <0>       0.0600
37 H37      -2.3949    -6.9983     1.7891 H      1 <0>       0.0600
38 H38      -2.4238    -6.4755     3.4903 H      1 <0>       0.0600
39 H39      -2.0591    -5.3003     2.2042 H      1 <0>       0.0500
40 H40      -1.4659    -2.5530    -1.4723 H      1 <0>       0.1200
41 H41      -1.3768    -0.0960    -1.4574 H      1 <0>       0.1200
@<TRIPOS>BOND
1    1    2 1
2    1   21 1
3    1   22 1
4    1   23 1
5    2   20 ar
6    2    3 ar
7    3    4 ar
8    3   24 1
9    4    5 ar
10    4   25 1
11    5    6 1
12    5   19 ar
13    6    7 2
14    6   26 1
15    7   14 1
16    7    8 1
17    8    9 2
18    8   10 1
19   10   16 1
20   10   11 1
21   10   12 1
22   11   27 1
23   11   28 1
24   11   29 1
25   12   13 1
26   12   30 1
27   12   31 1
28   13   14 1
29   13   32 1
30   13   33 1
31   14   15 1
32   14   16 1
33   16   17 1
34   16   18 1
35   17   34 1
36   17   35 1
37   17   36 1
38   18   37 1
39   18   38 1
40   18   39 1
41   19   20 ar
42   19   40 1
43   20   41 1
