@<TRIPOS>MOLECULE
ZINC000000000565
43    44    1     0     0
SMALL
USER_CHARGES
@<TRIPOS>ATOM
1      C1     -0.3687    0.8460   -0.2165 C.3      1 ZINC000000000565   -0.1300
2      C2     -0.1279   -0.6065    0.1052 C.ar     1 ZINC000000000565   -0.0800
3      C3     -0.1940   -1.5563   -0.8967 C.ar     1 ZINC000000000565   -0.1200
4      C4      0.0269   -2.8888   -0.6016 C.ar     1 ZINC000000000565   -0.1100
5      C5      0.3144   -3.2710    0.6952 C.ar     1 ZINC000000000565   -0.1300
6      C6      0.3814   -2.3208    1.6972 C.ar     1 ZINC000000000565   -0.0800
7      C7      0.1648   -0.9881    1.4014 C.ar     1 ZINC000000000565   -0.0800
8      C8      0.2379    0.0476    2.4936 C.3      1 ZINC000000000565    0.1700
9      H9      0.6262    0.9803    2.0844 H        1 ZINC000000000565    0.0700
10     O10     1.1048   -0.4147    3.5312 O.3      1 ZINC000000000565   -0.3500
11     C11     1.7810    0.6308    4.2326 C.3      1 ZINC000000000565    0.0700
12     C12     2.6763    0.0232    5.3143 C.3      1 ZINC000000000565    0.0600
13     N13     3.7384   -0.7707    4.6819 N.3      1 ZINC000000000565   -0.5400
14     C14     4.6508    0.0873    3.9143 C.3      1 ZINC000000000565    0.0200
15     C15     4.4723   -1.5588    5.6810 C.3      1 ZINC000000000565    0.0200
16     C16    -1.1400    0.2815    3.0572 C.ar     1 ZINC000000000565   -0.1100
17     C17    -1.7045   -0.6478    3.9108 C.ar     1 ZINC000000000565   -0.0900
18     C18    -2.9684   -0.4333    4.4278 C.ar     1 ZINC000000000565   -0.1200
19     C19    -3.6677    0.7107    4.0915 C.ar     1 ZINC000000000565   -0.1200
20     C20    -3.1029    1.6405    3.2386 C.ar     1 ZINC000000000565   -0.1200
21     C21    -1.8372    1.4280    2.7250 C.ar     1 ZINC000000000565   -0.1200
22     H22     0.5859    1.3432   -0.3885 H        1 ZINC000000000565    0.0700
23     H23    -0.9848    0.9224   -1.1124 H        1 ZINC000000000565    0.0700
24     H24    -0.8814    1.3229    0.6189 H        1 ZINC000000000565    0.0700
25     H25    -0.4187   -1.2576   -1.9100 H        1 ZINC000000000565    0.1200
26     H26    -0.0255   -3.6311   -1.3843 H        1 ZINC000000000565    0.1200
27     H27     0.4863   -4.3120    0.9258 H        1 ZINC000000000565    0.1200
28     H28     0.6057   -2.6195    2.7105 H        1 ZINC000000000565    0.1300
29     H29     2.3922    1.2012    3.5332 H        1 ZINC000000000565    0.0500
30     H30     1.0477    1.2906    4.6962 H        1 ZINC000000000565    0.0500
31     H31     3.1233    0.8215    5.9067 H        1 ZINC000000000565    0.0500
32     H32     2.0792   -0.6190    5.9617 H        1 ZINC000000000565    0.0800
33     H33     5.1100    0.8173    4.5808 H        1 ZINC000000000565    0.0200
34     H34     5.4273   -0.5258    3.4567 H        1 ZINC000000000565    0.0700
35     H35     4.0922    0.6069    3.1357 H        1 ZINC000000000565    0.0700
36     H36     3.7840   -2.2359    6.1868 H        1 ZINC000000000565    0.0700
37     H37     5.2526   -2.1370    5.1859 H        1 ZINC000000000565    0.0700
38     H38     4.9251   -0.8883    6.4115 H        1 ZINC000000000565    0.0200
39     H39    -1.1581   -1.5416    4.1736 H        1 ZINC000000000565    0.1300
40     H40    -3.4097   -1.1596    5.0942 H        1 ZINC000000000565    0.1200
41     H41    -4.6555    0.8780    4.4948 H        1 ZINC000000000565    0.1200
42     H42    -3.6494    2.5341    2.9755 H        1 ZINC000000000565    0.1200
43     H43    -1.3959    2.1544    2.0586 H        1 ZINC000000000565    0.1200
@<TRIPOS>BOND
1     1     2     1
2     1     22    1
3     1     23    1
4     1     24    1
5     2     7     ar
6     2     3     ar
7     3     4     ar
8     3     25    1
9     4     5     ar
10    4     26    1
11    5     6     ar
12    5     27    1
13    6     7     ar
14    6     28    1
15    7     8     1
16    8     9     1
17    8     10    1
18    8     16    1
19    10    11    1
20    11    12    1
21    11    29    1
22    11    30    1
23    12    13    1
24    12    31    1
25    12    32    1
26    13    14    1
27    13    15    1
28    14    33    1
29    14    34    1
30    14    35    1
31    15    36    1
32    15    37    1
33    15    38    1
34    16    21    ar
35    16    17    ar
36    17    18    ar
37    17    39    1
38    18    19    ar
39    18    40    1
40    19    20    ar
41    19    41    1
42    20    21    ar
43    20    42    1
44    21    43    1
@<TRIPOS>SUBSTRUCTURE
1   ZINC000000000565 1     RESIDUE    1   A     ZIN   1
