@<TRIPOS>MOLECULE
ZINC000084757007
37    40    1     0     0
SMALL
USER_CHARGES
@<TRIPOS>ATOM
1      O1      0.0021   -0.0041    0.0020 O.co2    1 ZINC000084757007   -0.6800
2      C2     -0.0145    1.2150    0.0087 C.2      1 ZINC000084757007    0.5100
3      O3      1.0330    1.8389    0.0021 O.co2    1 ZINC000084757007   -0.6700
4      C4     -1.3296    1.9507    0.0190 C.3      1 ZINC000084757007   -0.1700
5      S5     -2.6893    0.7559    0.0189 S.3      1 ZINC000084757007    0.0700
6      C6     -4.0645    1.8574    0.0314 C.2      1 ZINC000084757007    0.1800
7      N7     -4.0143    3.1689    0.0326 N.2      1 ZINC000084757007   -0.2900
8      N8     -5.2045    3.6534    0.0429 N.2      1 ZINC000084757007   -0.2400
9      C9     -6.0820    2.6890    0.0489 C.2      1 ZINC000084757007    0.1600
10     Br10   -7.9628    2.8846    0.0635 Br       1 ZINC000084757007    0.0800
11     N11    -5.3881    1.5075    0.0358 N.pl3    1 ZINC000084757007   -0.4100
12     C12    -5.9211    0.2131    0.0364 C.ar     1 ZINC000084757007    0.1000
13     C13    -6.1828   -0.4479    1.2546 C.ar     1 ZINC000084757007   -0.0200
14     C14    -5.9195    0.1675    2.4887 C.ar     1 ZINC000084757007   -0.1000
15     C15    -6.1850   -0.5004    3.6450 C.ar     1 ZINC000084757007   -0.1000
16     C16    -6.7155   -1.7888    3.6232 C.ar     1 ZINC000084757007   -0.1100
17     C17    -6.9829   -2.4165    2.4456 C.ar     1 ZINC000084757007   -0.1000
18     C18    -6.7222   -1.7578    1.2314 C.ar     1 ZINC000084757007   -0.0400
19     C19    -6.9865   -2.3751   -0.0029 C.ar     1 ZINC000084757007   -0.0100
20     C20    -7.5599   -3.7682   -0.0420 C.3      1 ZINC000084757007   -0.1300
21     C21    -8.0133   -4.3076   -1.4001 C.3      1 ZINC000084757007   -0.1700
22     C22    -6.7400   -4.8500   -0.7478 C.3      1 ZINC000084757007   -0.1600
23     C23    -6.7245   -1.7132   -1.1635 C.ar     1 ZINC000084757007   -0.1200
24     C24    -6.1998   -0.4240   -1.1526 C.ar     1 ZINC000084757007   -0.0700
25     H25    -1.3917    2.5717    0.9126 H        1 ZINC000084757007    0.0900
26     H26    -1.4001    2.5813   -0.8673 H        1 ZINC000084757007    0.0900
27     H27    -5.5081    1.1655    2.5207 H        1 ZINC000084757007    0.1200
28     H28    -5.9811   -0.0249    4.5930 H        1 ZINC000084757007    0.1300
29     H29    -6.9170   -2.2970    4.5546 H        1 ZINC000084757007    0.1300
30     H30    -7.3933   -3.4154    2.4440 H        1 ZINC000084757007    0.1300
31     H31    -8.1352   -4.0646    0.8351 H        1 ZINC000084757007    0.1200
32     H32    -8.8870   -4.9591   -1.4167 H        1 ZINC000084757007    0.1000
33     H33    -7.8967   -3.6549   -2.2652 H        1 ZINC000084757007    0.1000
34     H34    -5.7858   -4.5542   -1.1838 H        1 ZINC000084757007    0.1000
35     H35    -6.7761   -5.8583   -0.3352 H        1 ZINC000084757007    0.1000
36     H36    -6.9305   -2.1949   -2.1079 H        1 ZINC000084757007    0.1400
37     H37    -6.0012    0.0793   -2.0872 H        1 ZINC000084757007    0.1300
@<TRIPOS>BOND
1     1     2     ar
2     2     3     ar
3     2     4     1
4     4     5     1
5     4     25    1
6     4     26    1
7     5     6     1
8     6     11    1
9     6     7     2
10    7     8     1
11    8     9     2
12    9     10    1
13    9     11    1
14    11    12    1
15    12    24    ar
16    12    13    ar
17    13    18    ar
18    13    14    ar
19    14    15    ar
20    14    27    1
21    15    16    ar
22    15    28    1
23    16    17    ar
24    16    29    1
25    17    18    ar
26    17    30    1
27    18    19    ar
28    19    20    1
29    19    23    ar
30    20    22    1
31    20    21    1
32    20    31    1
33    21    22    1
34    21    32    1
35    21    33    1
36    22    34    1
37    22    35    1
38    23    24    ar
39    23    36    1
40    24    37    1
@<TRIPOS>SUBSTRUCTURE
1   ZINC000084757007 1     RESIDUE    1   A     ZIN   1
