@<TRIPOS>MOLECULE
ZINC000003989268
61    65    1     0     0
SMALL
USER_CHARGES
@<TRIPOS>ATOM
1      C1      0.3520    1.3702   -0.2414 C.3      1 ZINC000003989268   -0.1400
2      C2      0.3304   -0.1593   -0.2074 C.3      1 ZINC000003989268    0.0600
3      O3      1.0318   -0.6709   -1.3424 O.3      1 ZINC000003989268   -0.1400
4      N4      1.0707   -2.0850   -1.4061 N.2      1 ZINC000003989268   -0.3500
5      C5      1.6807   -2.6758   -2.3934 C.2      1 ZINC000003989268    0.2200
6      C6      1.7213   -4.1549   -2.4600 C.2      1 ZINC000003989268    0.5900
7      O7      2.2906   -4.7062   -3.3812 O.2      1 ZINC000003989268   -0.4500
8      N8      1.1269   -4.8893   -1.4988 N.am     1 ZINC000003989268   -0.7100
9      C9      1.1671   -6.3523   -1.5647 C.3      1 ZINC000003989268    0.1400
10     H10     2.0208   -6.7278   -2.1288 H        1 ZINC000003989268    0.1600
11     C11    -0.1555   -6.9809   -1.9697 C.2      1 ZINC000003989268    0.5300
12     O12    -0.7570   -7.0889   -3.0177 O.2      1 ZINC000003989268   -0.4100
13     N13    -0.3937   -7.3704   -0.7056 N.am     1 ZINC000003989268   -0.5700
14     C14    -1.4908   -7.7816    0.0839 C.2      1 ZINC000003989268    0.2600
15     C15    -2.5735   -8.4667   -0.5073 C.2      1 ZINC000003989268    0.4300
16     O16    -3.5476   -8.9596    0.2573 O.co2    1 ZINC000003989268   -0.6300
17     O17    -2.6221   -8.6210   -1.8302 O.co2    1 ZINC000003989268   -0.6200
18     C18    -1.4968   -7.5160    1.4047 C.2      1 ZINC000003989268   -0.3200
19     S19    -2.9550   -7.9772    2.2797 S.3      1 ZINC000003989268    0.3400
20     C20    -3.5622   -6.3838    2.7236 C.2      1 ZINC000003989268    0.0000
21     N21    -4.5872   -6.1580    3.4857 N.2      1 ZINC000003989268   -0.4900
22     C22    -4.9007   -4.8899    3.7126 C.2      1 ZINC000003989268    0.0600
23     C23    -6.0476   -4.4976    4.5653 C.ar     1 ZINC000003989268    0.1400
24     C24    -6.3551   -3.1501    4.7805 C.ar     1 ZINC000003989268   -0.1300
25     C25    -7.4314   -2.8293    5.5807 C.ar     1 ZINC000003989268    0.1200
26     N26    -8.1654   -3.7732    6.1393 N.ar     1 ZINC000003989268   -0.3600
27     C27    -9.2992   -3.3853    6.9822 C.3      1 ZINC000003989268    0.0200
28     C28    -7.9098   -5.0557    5.9616 C.ar     1 ZINC000003989268    0.1100
29     C29    -6.8557   -5.4646    5.1722 C.ar     1 ZINC000003989268   -0.1100
30     C30    -4.1048   -3.9835    3.1151 C.2      1 ZINC000003989268   -0.2500
31     S31    -2.8675   -4.8501    2.2077 S.3      1 ZINC000003989268    0.1600
32     C32    -0.4184   -6.8791    2.2177 C.3      1 ZINC000003989268   -0.0300
33     S33     0.7304   -5.9045    1.1998 S.3      1 ZINC000003989268   -0.1900
34     C34     0.9810   -7.0312   -0.2116 C.3      1 ZINC000003989268    0.1300
35     H35     1.6386   -7.8755   -0.0045 H        1 ZINC000003989268    0.1500
36     C36     2.3337   -1.8690   -3.4492 C.2      1 ZINC000003989268    0.2200
37     N37     2.9498   -2.4525   -4.4566 N.2      1 ZINC000003989268   -0.6300
38     S38     3.5334   -1.3435   -5.3969 S.3      1 ZINC000003989268    0.1400
39     C39     2.9466    0.0210   -4.4306 C.2      1 ZINC000003989268    0.4000
40     N40     3.0984    1.3067   -4.6680 N.2      1 ZINC000003989268   -1.0300
41     P41     3.8750    1.7776   -5.9284 P.3      1 ZINC000003989268    2.1700
42     O42     2.8500    1.9461   -7.1585 O.3      1 ZINC000003989268   -1.2200
43     O43     4.5855    3.1900   -5.6244 O.3      1 ZINC000003989268   -1.2100
44     O44     4.9943    0.6845   -6.3085 O.3      1 ZINC000003989268   -1.1900
45     N45     2.3060   -0.5601   -3.4036 N.2      1 ZINC000003989268   -0.6000
46     H46     1.3843    1.7196   -0.2185 H        1 ZINC000003989268    0.0700
47     H47    -0.1298    1.7202   -1.1544 H        1 ZINC000003989268    0.0700
48     H48    -0.1830    1.7605    0.6243 H        1 ZINC000003989268    0.0600
49     H49     0.8122   -0.5092    0.7056 H        1 ZINC000003989268    0.0400
50     H50    -0.7018   -0.5086   -0.2304 H        1 ZINC000003989268    0.0400
51     H51     0.6725   -4.4492   -0.7635 H        1 ZINC000003989268    0.4200
52     H52    -5.7583   -2.3726    4.3271 H        1 ZINC000003989268    0.1800
53     H53    -7.6767   -1.7918    5.7528 H        1 ZINC000003989268    0.2000
54     H54   -10.1954   -3.2980    6.3680 H        1 ZINC000003989268    0.1100
55     H55    -9.4571   -4.1429    7.7498 H        1 ZINC000003989268    0.1200
56     H56    -9.0885   -2.4265    7.4559 H        1 ZINC000003989268    0.1200
57     H57    -8.5369   -5.7949    6.4377 H        1 ZINC000003989268    0.2000
58     H58    -6.6522   -6.5159    5.0311 H        1 ZINC000003989268    0.1900
59     H59    -4.2045   -2.9103    3.1837 H        1 ZINC000003989268    0.1800
60     H60    -0.8755   -6.2243    2.9596 H        1 ZINC000003989268    0.1100
61     H61     0.1416   -7.6585    2.7343 H        1 ZINC000003989268    0.1000
@<TRIPOS>BOND
1     1     2     1
2     1     46    1
3     1     47    1
4     1     48    1
5     2     3     1
6     2     49    1
7     2     50    1
8     3     4     1
9     4     5     2
10    5     6     1
11    5     36    1
12    6     7     2
13    6     8     am
14    8     9     1
15    8     51    1
16    9     10    1
17    9     34    1
18    9     11    1
19    11    12    2
20    11    13    am
21    13    34    1
22    13    14    1
23    14    15    1
24    14    18    2
25    15    16    ar
26    15    17    ar
27    18    19    1
28    18    32    1
29    19    20    1
30    20    31    1
31    20    21    2
32    21    22    1
33    22    23    1
34    22    30    2
35    23    29    ar
36    23    24    ar
37    24    25    ar
38    24    52    1
39    25    26    ar
40    25    53    1
41    26    27    1
42    26    28    ar
43    27    54    1
44    27    55    1
45    27    56    1
46    28    29    ar
47    28    57    1
48    29    58    1
49    30    31    1
50    30    59    1
51    32    33    1
52    32    60    1
53    32    61    1
54    33    34    1
55    34    35    1
56    36    45    1
57    36    37    2
58    37    38    1
59    38    39    1
60    39    40    1
61    39    45    2
62    40    41    2
63    41    42    1
64    41    43    1
65    41    44    1
@<TRIPOS>SUBSTRUCTURE
1   ZINC000003989268 1     RESIDUE    1   A     ZIN   1
