@<TRIPOS>MOLECULE
ZINC000004097304
56   59    0    0    0
SMALL
USER_CHARGES
NO_NAME
@<TRIPOS>ATOM
1 C1       -0.6287     1.5486    -0.2093 C.3    1 <0>      -0.1700
2 C2       -0.7862     0.0268    -0.1905 C.3    1 <0>      -0.0400
3 C3       -2.1430    -0.3424     0.3779 C.3    1 <0>      -0.1300
4 C4       -2.2622     0.3434     1.7481 C.3    1 <0>       0.0900
5 H5       -3.2147     0.0688     2.2013 H      1 <0>       0.0700
6 O6       -2.2248     1.7601     1.5649 O.3    1 <0>      -0.5400
7 C7       -1.1294    -0.0657     2.6848 C.3    1 <0>       0.1500
8 F8       -1.2563    -1.4261     2.9855 F      1 <0>      -0.1900
9 C9        0.2490     0.1665     2.0489 C.3    1 <0>      -0.1000
10 H10       0.3986     1.2297     1.8611 H      1 <0>       0.1100
11 C11       1.3310    -0.3546     2.9994 C.3    1 <0>      -0.1200
12 C12       1.3222     0.4838     4.2794 C.3    1 <0>      -0.1000
13 C13      -0.0757     0.4594     4.8700 C.2    1 <0>      -0.0200
14 C14      -0.1955     0.1827     6.1682 C.2    1 <0>      -0.2400
15 C15      -1.5220     0.1626     6.7942 C.2    1 <0>       0.3900
16 O16      -1.7313    -0.4362     7.8285 O.2    1 <0>      -0.4600
17 C17      -2.6175     0.9301     6.0804 C.3    1 <0>      -0.1600
18 C18      -2.5934     0.5021     4.6138 C.3    1 <0>      -0.1100
19 C19      -1.2336     0.7438     3.9833 C.3    1 <0>      -0.0500
20 C20      -1.1483     2.2205     3.5922 C.3    1 <0>      -0.1400
21 C21       0.2854    -0.6018     0.7403 C.3    1 <0>      -0.0800
22 H22       0.0687    -1.6559     0.9135 H      1 <0>       0.0900
23 C23       1.5676    -0.4492    -0.0857 C.3    1 <0>      -0.1100
24 C24       1.1005    -0.8062    -1.5232 C.3    1 <0>      -0.1400
25 C25      -0.4404    -0.5455    -1.5613 C.3    1 <0>       0.1000
26 O26      -1.1446    -1.7702    -1.7767 O.3    1 <0>      -0.5400
27 C27      -0.7753     0.4480    -2.6437 C.2    1 <0>       0.3400
28 O28       0.0586     1.2372    -3.0180 O.2    1 <0>      -0.4100
29 C29      -2.1509     0.4567    -3.2591 C.3    1 <0>       0.0300
30 O30      -2.2215     1.4806    -4.2534 O.3    1 <0>      -0.5600
31 H31       0.2645     1.8145    -0.7747 H      1 <0>       0.0600
32 H32      -1.5034     1.9986    -0.6788 H      1 <0>       0.0500
33 H33      -0.5349     1.9168     0.8124 H      1 <0>       0.1100
34 H34      -2.9323     0.0124    -0.2849 H      1 <0>       0.0700
35 H35      -2.2143    -1.4236     0.4962 H      1 <0>       0.0900
36 H36      -2.9359     2.1034     1.0068 H      1 <0>       0.3700
37 H37       1.1284    -1.3969     3.2454 H      1 <0>       0.0700
38 H38       2.3063    -0.2758     2.5192 H      1 <0>       0.0800
39 H39       2.0289     0.0646     4.9957 H      1 <0>       0.0800
40 H40       1.6021     1.5110     4.0454 H      1 <0>       0.0900
41 H41       0.6838    -0.0270     6.7591 H      1 <0>       0.1400
42 H42      -3.5853     0.6902     6.5206 H      1 <0>       0.0900
43 H43      -2.4298     2.0011     6.1570 H      1 <0>       0.1000
44 H44      -2.8220    -0.5618     4.5504 H      1 <0>       0.0700
45 H45      -3.3540     1.0605     4.0682 H      1 <0>       0.0900
46 H46      -0.8662     2.8114     4.4635 H      1 <0>       0.0500
47 H47      -0.3998     2.3465     2.8099 H      1 <0>       0.0700
48 H48      -2.1181     2.5555     3.2244 H      1 <0>       0.1000
49 H49       1.9341     0.5765    -0.0430 H      1 <0>       0.0700
50 H50       2.3318    -1.1474     0.2560 H      1 <0>       0.0700
51 H51       1.6115    -0.1751    -2.2503 H      1 <0>       0.0900
52 H52       1.3021    -1.8569    -1.7320 H      1 <0>       0.0800
53 H53      -0.9337    -2.2029    -2.6153 H      1 <0>       0.3800
54 H54      -2.3491    -0.5112    -3.7196 H      1 <0>       0.0800
55 H55      -2.8939     0.6499    -2.4853 H      1 <0>       0.0800
56 H56      -3.0808     1.5441    -4.6924 H      1 <0>       0.3900
@<TRIPOS>BOND
1    1    2 1
2    1   31 1
3    1   32 1
4    1   33 1
5    2   21 1
6    2   25 1
7    2    3 1
8    3    4 1
9    3   34 1
10    3   35 1
11    4    5 1
12    4    6 1
13    4    7 1
14    6   36 1
15    7   19 1
16    7    8 1
17    7    9 1
18    9   10 1
19    9   11 1
20    9   21 1
21   11   12 1
22   11   37 1
23   11   38 1
24   12   13 1
25   12   39 1
26   12   40 1
27   13   19 1
28   13   14 2
29   14   15 1
30   14   41 1
31   15   16 2
32   15   17 1
33   17   18 1
34   17   42 1
35   17   43 1
36   18   19 1
37   18   44 1
38   18   45 1
39   19   20 1
40   20   46 1
41   20   47 1
42   20   48 1
43   21   22 1
44   21   23 1
45   23   24 1
46   23   49 1
47   23   50 1
48   24   25 1
49   24   51 1
50   24   52 1
51   25   26 1
52   25   27 1
53   26   53 1
54   27   28 2
55   27   29 1
56   29   30 1
57   29   54 1
58   29   55 1
59   30   56 1
