@<TRIPOS>MOLECULE
ZINC000036294079
33    34    1     0     0
SMALL
USER_CHARGES
@<TRIPOS>ATOM
1      C1      0.0293    1.4737   -0.0082 C.3      1 ZINC000036294079   -0.0700
2      N2      0.0074    0.0049    0.0021 N.4      1 ZINC000036294079   -0.4900
3      H3     -0.9437   -0.3166    0.1037 H        1 ZINC000036294079    0.4300
4      H4      0.3894   -0.3432   -0.8644 H        1 ZINC000036294079    0.4300
5      C5      0.8138   -0.4890    1.1262 C.3      1 ZINC000036294079    0.0600
6      C6      0.1507   -0.1163    2.4272 C.ar     1 ZINC000036294079   -0.1200
7      C7     -1.0948    0.4823    2.4213 C.ar     1 ZINC000036294079   -0.1300
8      C8     -1.7034    0.8244    3.6148 C.ar     1 ZINC000036294079   -0.0900
9      C9     -1.0662    0.5683    4.8144 C.ar     1 ZINC000036294079   -0.0800
10     C10     0.1798   -0.0304    4.8215 C.ar     1 ZINC000036294079   -0.0900
11     C11     0.7864   -0.3785    3.6279 C.ar     1 ZINC000036294079    0.0000
12     Cl12    2.3511   -1.1304    3.6360 Cl       1 ZINC000036294079   -0.0400
13     C13     0.9505   -2.0122    1.0315 C.3      1 ZINC000036294079   -0.1400
14     C14     1.7466   -2.3739   -0.2235 C.3      1 ZINC000036294079   -0.1300
15     C15     3.1679   -1.8194   -0.1138 C.3      1 ZINC000036294079   -0.1300
16     C16     3.1146   -0.2889   -0.0622 C.3      1 ZINC000036294079   -0.1700
17     C17     2.1962    0.1225    1.0671 C.2      1 ZINC000036294079    0.3500
18     O18     2.5571    0.9190    1.8999 O.2      1 ZINC000036294079   -0.3700
19     H19     1.0620    1.8215   -0.0327 H        1 ZINC000036294079    0.1200
20     H20    -0.4981    1.8388   -0.8895 H        1 ZINC000036294079    0.1400
21     H21    -0.4598    1.8507    0.8900 H        1 ZINC000036294079    0.1400
22     H22    -1.5929    0.6833    1.4843 H        1 ZINC000036294079    0.1300
23     H23    -2.6768    1.2922    3.6098 H        1 ZINC000036294079    0.1500
24     H24    -1.5417    0.8363    5.7463 H        1 ZINC000036294079    0.1500
25     H25     0.6775   -0.2305    5.7588 H        1 ZINC000036294079    0.1500
26     H26     1.4717   -2.3859    1.9129 H        1 ZINC000036294079    0.1200
27     H27    -0.0402   -2.4633    0.9762 H        1 ZINC000036294079    0.1100
28     H28     1.7877   -3.4583   -0.3265 H        1 ZINC000036294079    0.1100
29     H29     1.2573   -1.9462   -1.0986 H        1 ZINC000036294079    0.0700
30     H30     3.6366   -2.1977    0.7946 H        1 ZINC000036294079    0.0800
31     H31     3.7487   -2.1339   -0.9809 H        1 ZINC000036294079    0.1000
32     H32     4.1146    0.1064    0.1167 H        1 ZINC000036294079    0.1200
33     H33     2.7292    0.0961   -1.0063 H        1 ZINC000036294079    0.1100
@<TRIPOS>BOND
1     1     2     1
2     1     19    1
3     1     20    1
4     1     21    1
5     2     3     1
6     2     4     1
7     2     5     1
8     5     17    1
9     5     6     1
10    5     13    1
11    6     11    ar
12    6     7     ar
13    7     8     ar
14    7     22    1
15    8     9     ar
16    8     23    1
17    9     10    ar
18    9     24    1
19    10    11    ar
20    10    25    1
21    11    12    1
22    13    14    1
23    13    26    1
24    13    27    1
25    14    15    1
26    14    28    1
27    14    29    1
28    15    16    1
29    15    30    1
30    15    31    1
31    16    17    1
32    16    32    1
33    16    33    1
34    17    18    2
@<TRIPOS>SUBSTRUCTURE
1   ZINC000036294079 1     RESIDUE    1   A     ZIN   1
