@<TRIPOS>MOLECULE
ZINC000002000707
25    25    1     0     0
SMALL
USER_CHARGES
@<TRIPOS>ATOM
1      N1     -0.9760   -1.1123   -0.1495 N.1      1 ZINC000002000707   -0.4300
2      C2     -0.8632    0.0177   -0.1228 C.1      1 ZINC000002000707    0.2800
3      C3     -0.7210    1.4423   -0.0892 C.ar     1 ZINC000002000707    0.0100
4      C4     -1.8500    2.2597   -0.1631 C.ar     1 ZINC000002000707   -0.1100
5      C5     -1.7091    3.6390   -0.1303 C.ar     1 ZINC000002000707    0.1900
6      N6     -2.8389    4.4581   -0.2043 N.am     1 ZINC000002000707   -0.6500
7      C7     -4.0393    3.9874    0.1882 C.2      1 ZINC000002000707    0.4500
8      O8     -4.1233    2.8897    0.6986 O.2      1 ZINC000002000707   -0.5200
9      C9     -5.2679    4.8180   -0.0055 C.2      1 ZINC000002000707    0.5000
10     O10    -6.3548    4.3919    0.3499 O.co2    1 ZINC000002000707   -0.6400
11     O11    -5.1835    5.9219   -0.5189 O.co2    1 ZINC000002000707   -0.6600
12     C12    -0.4450    4.2076   -0.0235 C.ar     1 ZINC000002000707   -0.1000
13     Cl13   -0.2727    5.9345    0.0184 Cl       1 ZINC000002000707   -0.0500
14     C14     0.6813    3.3961    0.0504 C.ar     1 ZINC000002000707    0.1900
15     N15     1.9504    3.9714    0.1577 N.am     1 ZINC000002000707   -0.6500
16     C16     2.9591    3.2781    0.7218 C.2      1 ZINC000002000707    0.4500
17     O17     2.7437    2.1956    1.2262 O.2      1 ZINC000002000707   -0.5200
18     C18     4.3440    3.8427    0.7260 C.2      1 ZINC000002000707    0.5000
19     O19     5.2574    3.2149    1.2368 O.co2    1 ZINC000002000707   -0.6400
20     O20     4.5606    4.9313    0.2187 O.co2    1 ZINC000002000707   -0.6600
21     C21     0.5464    2.0161    0.0234 C.ar     1 ZINC000002000707   -0.1100
22     H22    -2.8323    1.8185   -0.2461 H        1 ZINC000002000707    0.1600
23     H23    -2.7592    5.3653   -0.5381 H        1 ZINC000002000707    0.4200
24     H24     2.1052    4.8698   -0.1738 H        1 ZINC000002000707    0.4200
25     H25     1.4218    1.3861    0.0808 H        1 ZINC000002000707    0.1600
@<TRIPOS>BOND
1     1     2     3
2     2     3     1
3     3     21    ar
4     3     4     ar
5     4     5     ar
6     4     22    1
7     5     6     1
8     5     12    ar
9     6     7     am
10    6     23    1
11    7     8     2
12    7     9     1
13    9     10    ar
14    9     11    ar
15    12    13    1
16    12    14    ar
17    14    15    1
18    14    21    ar
19    15    16    am
20    15    24    1
21    16    17    2
22    16    18    1
23    18    19    ar
24    18    20    ar
25    21    25    1
@<TRIPOS>SUBSTRUCTURE
1   ZINC000002000707 1     RESIDUE    1   A     ZIN   1
