@<TRIPOS>MOLECULE
ZINC000003938704
68    72    1     0     0
SMALL
USER_CHARGES
@<TRIPOS>ATOM
1      C1      1.0147    1.2067    2.0901 C.3      1 ZINC000003938704    0.0200
2      O2      0.8384   -0.1647    1.7290 O.3      1 ZINC000003938704   -0.2800
3      C3     -0.4346   -0.5937    1.5440 C.ar     1 ZINC000003938704    0.1600
4      C4     -1.5001    0.2881    1.7005 C.ar     1 ZINC000003938704   -0.2000
5      C5     -2.7975   -0.1443    1.5144 C.ar     1 ZINC000003938704   -0.0700
6      C6     -3.0595   -1.4604    1.1689 C.ar     1 ZINC000003938704   -0.1100
7      C7     -2.0103   -2.3573    1.0063 C.ar     1 ZINC000003938704   -0.0800
8      C8     -0.6837   -1.9220    1.1895 C.ar     1 ZINC000003938704   -0.1400
9      C9      0.4295   -2.8749    1.0161 C.2      1 ZINC000003938704    0.4400
10     O10     1.5463   -2.5944    1.4075 O.2      1 ZINC000003938704   -0.4200
11     C11     0.1714   -4.1718    0.3627 C.ar     1 ZINC000003938704   -0.2800
12     C12     1.2218   -4.9701   -0.0802 C.ar     1 ZINC000003938704    0.3200
13     O13     2.5014   -4.5537    0.0885 O.3      1 ZINC000003938704   -0.6600
14     C14     0.9665   -6.2020   -0.6992 C.ar     1 ZINC000003938704   -0.1900
15     C15    -0.3250   -6.6309   -0.8718 C.ar     1 ZINC000003938704   -0.0200
16     C16    -0.6624   -7.9483   -1.5217 C.3      1 ZINC000003938704   -0.0900
17     C17     0.5293   -8.4779   -2.3160 C.3      1 ZINC000003938704    0.1100
18     O18     0.2664   -9.8156   -2.7443 O.3      1 ZINC000003938704   -0.5400
19     C19     0.7712   -7.5988   -3.5158 C.2      1 ZINC000003938704    0.3100
20     O20     0.3948   -6.4514   -3.5093 O.2      1 ZINC000003938704   -0.3800
21     C21     1.4827   -8.1515   -4.7238 C.3      1 ZINC000003938704    0.0300
22     O22     1.5900   -7.1334   -5.7208 O.3      1 ZINC000003938704   -0.5500
23     C23     1.7621   -8.4601   -1.4043 C.3      1 ZINC000003938704   -0.1200
24     C24     2.1562   -7.0055   -1.1581 C.3      1 ZINC000003938704    0.1800
25     H25     2.5440   -6.5771   -2.0823 H        1 ZINC000003938704    0.0600
26     O26     3.1719   -6.9564   -0.1540 O.3      1 ZINC000003938704   -0.3500
27     C27     4.5016   -6.9039   -0.6746 C.3      1 ZINC000003938704    0.2500
28     H28     4.5539   -6.1534   -1.4633 H        1 ZINC000003938704    0.1200
29     C29     5.4750   -6.5338    0.4477 C.3      1 ZINC000003938704   -0.1500
30     C30     5.4396   -7.6235    1.5236 C.3      1 ZINC000003938704    0.0400
31     H31     4.4432   -7.6698    1.9631 H        1 ZINC000003938704    0.1600
32     N32     6.4240   -7.3139    2.5691 N.4      1 ZINC000003938704   -0.6300
33     H33     6.2020   -6.4225    2.9866 H        1 ZINC000003938704    0.4400
34     H34     6.3998   -8.0323    3.2772 H        1 ZINC000003938704    0.4400
35     H35     7.3462   -7.2741    2.1617 H        1 ZINC000003938704    0.4300
36     C36     5.7792   -8.9717    0.8806 C.3      1 ZINC000003938704    0.0600
37     H37     6.7944   -8.9411    0.4848 H        1 ZINC000003938704    0.0900
38     O38     5.6799  -10.0068    1.8608 O.3      1 ZINC000003938704   -0.5700
39     C39     4.7942   -9.2476   -0.2583 C.3      1 ZINC000003938704    0.0600
40     H40     3.7837   -9.3183    0.1442 H        1 ZINC000003938704    0.0900
41     C41     5.1634  -10.5644   -0.9445 C.3      1 ZINC000003938704   -0.1500
42     O42     4.8553   -8.1815   -1.2083 O.3      1 ZINC000003938704   -0.3800
43     C43    -1.3943   -5.8367   -0.4344 C.ar     1 ZINC000003938704    0.0200
44     O44    -2.6684   -6.2660   -0.6112 O.3      1 ZINC000003938704   -0.4800
45     C45    -1.1570   -4.6105    0.1807 C.ar     1 ZINC000003938704   -0.0900
46     C46    -2.2740   -3.7650    0.6363 C.2      1 ZINC000003938704    0.4400
47     O47    -3.3993   -4.2194    0.7116 O.2      1 ZINC000003938704   -0.4300
48     H48     2.0777    1.4178    2.2070 H        1 ZINC000003938704    0.1000
49     H49     0.6015    1.8442    1.3086 H        1 ZINC000003938704    0.0600
50     H50     0.4996    1.4040    3.0302 H        1 ZINC000003938704    0.0500
51     H51    -1.3105    1.3168    1.9695 H        1 ZINC000003938704    0.1400
52     H52    -3.6159    0.5492    1.6395 H        1 ZINC000003938704    0.1300
53     H53    -4.0783   -1.7890    1.0263 H        1 ZINC000003938704    0.1400
54     H54    -0.9300   -8.6709   -0.7508 H        1 ZINC000003938704    0.0900
55     H55    -1.5094   -7.8107   -2.1938 H        1 ZINC000003938704    0.0900
56     H56    -0.5124   -9.9013   -3.3111 H        1 ZINC000003938704    0.3800
57     H57     2.4798   -8.4856   -4.4369 H        1 ZINC000003938704    0.0800
58     H58     0.9185   -8.9939   -5.1240 H        1 ZINC000003938704    0.0800
59     H59     2.0385   -7.4193   -6.5283 H        1 ZINC000003938704    0.3800
60     H60     1.5246   -8.9419   -0.4559 H        1 ZINC000003938704    0.0900
61     H61     2.5847   -8.9865   -1.8884 H        1 ZINC000003938704    0.0800
62     H62     6.4839   -6.4540    0.0431 H        1 ZINC000003938704    0.1000
63     H63     5.1805   -5.5800    0.8854 H        1 ZINC000003938704    0.1300
64     H64     5.8821  -10.8897    1.5223 H        1 ZINC000003938704    0.4000
65     H65     5.1175  -11.3771   -0.2196 H        1 ZINC000003938704    0.0700
66     H66     4.4619  -10.7607   -1.7553 H        1 ZINC000003938704    0.0800
67     H67     6.1737  -10.4934   -1.3473 H        1 ZINC000003938704    0.0700
68     H68    -3.0126   -6.7900    0.1250 H        1 ZINC000003938704    0.3700
@<TRIPOS>BOND
1     1     2     1
2     1     48    1
3     1     49    1
4     1     50    1
5     2     3     1
6     3     8     ar
7     3     4     ar
8     4     5     ar
9     4     51    1
10    5     6     ar
11    5     52    1
12    6     7     ar
13    6     53    1
14    7     46    1
15    7     8     ar
16    8     9     1
17    9     10    2
18    9     11    1
19    11    45    ar
20    11    12    ar
21    12    13    1
22    12    14    ar
23    14    24    1
24    14    15    ar
25    15    16    1
26    15    43    ar
27    16    17    1
28    16    54    1
29    16    55    1
30    17    18    1
31    17    19    1
32    17    23    1
33    18    56    1
34    19    20    2
35    19    21    1
36    21    22    1
37    21    57    1
38    21    58    1
39    22    59    1
40    23    24    1
41    23    60    1
42    23    61    1
43    24    25    1
44    24    26    1
45    26    27    1
46    27    28    1
47    27    42    1
48    27    29    1
49    29    30    1
50    29    62    1
51    29    63    1
52    30    31    1
53    30    32    1
54    30    36    1
55    32    33    1
56    32    34    1
57    32    35    1
58    36    37    1
59    36    38    1
60    36    39    1
61    38    64    1
62    39    40    1
63    39    41    1
64    39    42    1
65    41    65    1
66    41    66    1
67    41    67    1
68    43    44    1
69    43    45    ar
70    44    68    1
71    45    46    1
72    46    47    2
@<TRIPOS>SUBSTRUCTURE
1   ZINC000003938704 1     RESIDUE    1   A     ZIN   1
