@<TRIPOS>MOLECULE
ZINC000003792417
58    59    1     0     0
SMALL
USER_CHARGES
@<TRIPOS>ATOM
1      C1     -3.4698    0.7113   -3.7926 C.3      1 ZINC000003792417   -0.1500
2      C2     -3.4304   -0.7792   -3.4495 C.3      1 ZINC000003792417    0.0600
3      O3     -3.1893   -0.9423   -2.0270 O.3      1 ZINC000003792417   -0.3600
4      C4     -3.1257   -2.1991   -1.5598 C.2      1 ZINC000003792417    0.4700
5      O5     -3.2667   -3.1320   -2.3146 O.2      1 ZINC000003792417   -0.5100
6      C6     -2.8782   -2.4464   -0.0940 C.3      1 ZINC000003792417   -0.0800
7      H7     -3.6752   -1.9879    0.4914 H        1 ZINC000003792417    0.1100
8      C8     -1.5344   -1.8346    0.3067 C.3      1 ZINC000003792417   -0.1400
9      C9     -2.8523   -3.9530    0.1717 C.3      1 ZINC000003792417   -0.1200
10     C10    -4.2452   -4.5377   -0.0708 C.3      1 ZINC000003792417    0.1500
11     H11    -4.5739   -4.2869   -1.0794 H        1 ZINC000003792417    0.1000
12     C12    -4.1940   -6.0588    0.0854 C.3      1 ZINC000003792417   -0.1000
13     C13    -5.5348   -6.6460   -0.2730 C.ar     1 ZINC000003792417   -0.0700
14     C14    -6.5013   -6.8038    0.7040 C.ar     1 ZINC000003792417   -0.1000
15     C15    -7.7310   -7.3410    0.3814 C.ar     1 ZINC000003792417   -0.1000
16     C16    -7.9981   -7.7247   -0.9312 C.ar     1 ZINC000003792417   -0.0600
17     C17    -9.3186   -8.3024   -1.2842 C.ar     1 ZINC000003792417   -0.0400
18     C18   -10.2979   -8.4579   -0.3053 C.ar     1 ZINC000003792417   -0.1100
19     C19   -11.5243   -8.9958   -0.6391 C.ar     1 ZINC000003792417   -0.1200
20     C20   -11.7821   -9.3803   -1.9426 C.ar     1 ZINC000003792417   -0.1200
21     C21   -10.8135   -9.2282   -2.9183 C.ar     1 ZINC000003792417   -0.1200
22     C22    -9.5856   -8.6861   -2.5968 C.ar     1 ZINC000003792417   -0.1200
23     C23    -7.0209   -7.5635   -1.9113 C.ar     1 ZINC000003792417   -0.1100
24     C24    -5.7966   -7.0199   -1.5787 C.ar     1 ZINC000003792417   -0.1200
25     N25    -5.1860   -3.9782    0.9028 N.am     1 ZINC000003792417   -0.7300
26     C26    -4.9803   -4.1633    2.2219 C.2      1 ZINC000003792417    0.5100
27     O27    -4.0164   -4.7930    2.6028 O.2      1 ZINC000003792417   -0.5400
28     C28    -5.9481   -3.5877    3.2234 C.3      1 ZINC000003792417   -0.1200
29     C29    -5.4866   -3.9398    4.6391 C.3      1 ZINC000003792417   -0.1600
30     C30    -6.4544   -3.3642    5.6406 C.2      1 ZINC000003792417    0.4900
31     O31    -7.4234   -2.7311    5.2577 O.co2    1 ZINC000003792417   -0.7000
32     O32    -6.2683   -3.5316    6.8339 O.co2    1 ZINC000003792417   -0.7000
33     H33    -3.6508    0.8337   -4.8604 H        1 ZINC000003792417    0.0800
34     H34    -4.2705    1.1924   -3.2309 H        1 ZINC000003792417    0.0700
35     H35    -2.5162    1.1697   -3.5308 H        1 ZINC000003792417    0.0700
36     H36    -4.3840   -1.2376   -3.7113 H        1 ZINC000003792417    0.0700
37     H37    -2.6297   -1.2603   -4.0113 H        1 ZINC000003792417    0.0700
38     H38    -1.5643   -0.7566    0.1484 H        1 ZINC000003792417    0.0700
39     H39    -1.3400   -2.0421    1.3590 H        1 ZINC000003792417    0.0800
40     H40    -0.7413   -2.2694   -0.3018 H        1 ZINC000003792417    0.0600
41     H41    -2.1369   -4.4280   -0.4996 H        1 ZINC000003792417    0.0800
42     H42    -2.5568   -4.1346    1.2050 H        1 ZINC000003792417    0.1100
43     H43    -3.4301   -6.4666   -0.5767 H        1 ZINC000003792417    0.0800
44     H44    -3.9516   -6.3101    1.1180 H        1 ZINC000003792417    0.1000
45     H45    -6.2931   -6.5064    1.7211 H        1 ZINC000003792417    0.1200
46     H46    -8.4847   -7.4641    1.1450 H        1 ZINC000003792417    0.1200
47     H47   -10.0976   -8.1584    0.7128 H        1 ZINC000003792417    0.1300
48     H48   -12.2840   -9.1171    0.1189 H        1 ZINC000003792417    0.1200
49     H49   -12.7430   -9.8011   -2.1994 H        1 ZINC000003792417    0.1200
50     H50   -11.0199   -9.5304   -3.9344 H        1 ZINC000003792417    0.1200
51     H51    -8.8301   -8.5677   -3.3594 H        1 ZINC000003792417    0.1200
52     H52    -7.2225   -7.8595   -2.9302 H        1 ZINC000003792417    0.1200
53     H53    -5.0385   -6.8942   -2.3376 H        1 ZINC000003792417    0.1200
54     H54    -5.9569   -3.4745    0.5982 H        1 ZINC000003792417    0.4000
55     H55    -5.9845   -2.5040    3.1121 H        1 ZINC000003792417    0.0900
56     H56    -6.9404   -4.0043    3.0507 H        1 ZINC000003792417    0.0900
57     H57    -5.4501   -5.0234    4.7504 H        1 ZINC000003792417    0.0600
58     H58    -4.4943   -3.5232    4.8118 H        1 ZINC000003792417    0.0600
@<TRIPOS>BOND
1     1     2     1
2     1     33    1
3     1     34    1
4     1     35    1
5     2     3     1
6     2     36    1
7     2     37    1
8     3     4     1
9     4     5     2
10    4     6     1
11    6     7     1
12    6     8     1
13    6     9     1
14    8     38    1
15    8     39    1
16    8     40    1
17    9     10    1
18    9     41    1
19    9     42    1
20    10    11    1
21    10    12    1
22    10    25    1
23    12    13    1
24    12    43    1
25    12    44    1
26    13    24    ar
27    13    14    ar
28    14    15    ar
29    14    45    1
30    15    16    ar
31    15    46    1
32    16    17    1
33    16    23    ar
34    17    22    ar
35    17    18    ar
36    18    19    ar
37    18    47    1
38    19    20    ar
39    19    48    1
40    20    21    ar
41    20    49    1
42    21    22    ar
43    21    50    1
44    22    51    1
45    23    24    ar
46    23    52    1
47    24    53    1
48    25    26    am
49    25    54    1
50    26    27    2
51    26    28    1
52    28    29    1
53    28    55    1
54    28    56    1
55    29    30    1
56    29    57    1
57    29    58    1
58    30    31    ar
59    30    32    ar
@<TRIPOS>SUBSTRUCTURE
1   ZINC000003792417 1     RESIDUE    1   A     ZIN   1
