@<TRIPOS>MOLECULE
ZINC000053022902
25   24    0    0    0
SMALL
USER_CHARGES
NO_NAME
@<TRIPOS>ATOM
1 N1        0.0954     0.5961     0.2484 N.4    1 <0>      -0.6400
2 H2       -0.0080    -0.4068     0.2885 H      1 <0>       0.4400
3 H3        1.0738     0.8359     0.3067 H      1 <0>       0.4400
4 H4       -0.2835     0.9387    -0.6217 H      1 <0>       0.4300
5 C5       -0.6266     1.2082     1.3717 C.3    1 <0>       0.0000
6 C6       -2.1101     0.8446     1.2833 C.3    1 <0>      -0.1700
7 C7       -2.8621     1.4822     2.4533 C.3    1 <0>      -0.1200
8 C8       -4.3198     1.0180     2.4363 C.3    1 <0>      -0.0800
9 N9       -4.9265     1.3567     1.1420 N.4    1 <0>      -0.6100
10 H10      -4.4184     0.8966     0.4017 H      1 <0>       0.4300
11 H11      -5.8879     1.0505     1.1308 H      1 <0>       0.4400
12 H12      -4.8901     2.3556     1.0046 H      1 <0>       0.4200
13 C13      -4.3743    -0.4740     2.6415 C.2    1 <0>       0.4900
14 O14      -3.9203    -0.9662     3.6604 O.co2  1 <0>      -0.6000
15 O15      -4.8724    -1.1889     1.7887 O.co2  1 <0>      -0.6500
16 C16      -5.0904     1.7156     3.5590 C.3    1 <0>       0.2800
17 F17      -4.4731     1.4468     4.7853 F      1 <0>      -0.1500
18 F18      -5.0962     3.0962     3.3326 F      1 <0>      -0.2000
19 H19      -0.2172     0.8381     2.3117 H      1 <0>       0.1400
20 H20      -0.5148     2.2916     1.3283 H      1 <0>       0.1400
21 H21      -2.5195     1.2148     0.3434 H      1 <0>       0.0800
22 H22      -2.2219    -0.2387     1.3267 H      1 <0>       0.1100
23 H23      -2.3960     1.1817     3.3917 H      1 <0>       0.1300
24 H24      -2.8253     2.5676     2.3606 H      1 <0>       0.1000
25 H25      -6.1158     1.3466     3.5797 H      1 <0>       0.1300
@<TRIPOS>BOND
1    1    2 1
2    1    3 1
3    1    4 1
4    1    5 1
5    5    6 1
6    5   19 1
7    5   20 1
8    6    7 1
9    6   21 1
10    6   22 1
11    7    8 1
12    7   23 1
13    7   24 1
14    8    9 1
15    8   13 1
16    8   16 1
17    9   10 1
18    9   11 1
19    9   12 1
20   13   14 ar
21   13   15 ar
22   16   17 1
23   16   18 1
24   16   25 1
