@<TRIPOS>MOLECULE
ZINC000000000905
34    34    1     0     0
SMALL
USER_CHARGES
@<TRIPOS>ATOM
1      C1     -0.0178    1.4608    0.0101 C.3      1 ZINC000000000905    0.0800
2      N2      0.0021   -0.0041    0.0020 N.pl3    1 ZINC000000000905   -0.5300
3      C3      0.0241   -0.7433    1.2666 C.3      1 ZINC000000000905    0.0800
4      C4      0.0000   -0.6876   -1.1969 C.ar     1 ZINC000000000905    0.6700
5      N5      0.0125   -2.0169   -1.2042 N.ar     1 ZINC000000000905   -0.6200
6      C6      0.0101   -2.6753   -2.3590 C.ar     1 ZINC000000000905    0.6800
7      N7      0.0226   -4.0554   -2.3665 N.pl3    1 ZINC000000000905   -0.5600
8      C8      0.0385   -4.7947   -1.1019 C.3      1 ZINC000000000905    0.0800
9      C9      0.0199   -4.7810   -3.6392 C.3      1 ZINC000000000905    0.0600
10     N10    -0.0048   -2.0045   -3.5066 N.ar     1 ZINC000000000905   -0.6400
11     H11    -0.0069   -2.4850   -4.3492 H        1 ZINC000000000905    0.4300
12     C12    -0.0173   -0.6752   -3.4993 C.ar     1 ZINC000000000905    0.6800
13     N13    -0.0332    0.0212   -4.6907 N.pl3    1 ZINC000000000905   -0.5600
14     C14    -0.0363   -0.7044   -5.9634 C.3      1 ZINC000000000905    0.0600
15     C15    -0.0469    1.4861   -4.6827 C.3      1 ZINC000000000905    0.0800
16     N16    -0.0200   -0.0168   -2.3445 N.ar     1 ZINC000000000905   -0.6200
17     H17     1.0048    1.8381    0.0023 H        1 ZINC000000000905    0.0800
18     H18    -0.5450    1.8219   -0.8730 H        1 ZINC000000000905    0.0900
19     H19    -0.5280    1.8123    0.9069 H        1 ZINC000000000905    0.0900
20     H20    -0.9979   -0.9406    1.5900 H        1 ZINC000000000905    0.0800
21     H21     0.5496   -1.6879    1.1262 H        1 ZINC000000000905    0.0900
22     H22     0.5371   -0.1514    2.0246 H        1 ZINC000000000905    0.0900
23     H23     0.0382   -4.0909   -0.2695 H        1 ZINC000000000905    0.1100
24     H24    -0.8453   -5.4297   -1.0411 H        1 ZINC000000000905    0.0900
25     H25     0.9345   -5.4135   -1.0540 H        1 ZINC000000000905    0.0900
26     H26     1.0468   -4.9516   -3.9623 H        1 ZINC000000000905    0.0900
27     H27    -0.4843   -5.7387   -3.5103 H        1 ZINC000000000905    0.1100
28     H28    -0.5048   -4.1925   -4.3919 H        1 ZINC000000000905    0.0700
29     H29    -1.0646   -0.8940   -6.2710 H        1 ZINC000000000905    0.0900
30     H30     0.4660   -0.1064   -6.7238 H        1 ZINC000000000905    0.1100
31     H31     0.4875   -1.6526   -5.8423 H        1 ZINC000000000905    0.0700
32     H32     0.9773    1.8591   -4.6888 H        1 ZINC000000000905    0.0800
33     H33    -0.5711    1.8494   -5.5667 H        1 ZINC000000000905    0.1000
34     H34    -0.5571    1.8398   -3.7868 H        1 ZINC000000000905    0.1000
@<TRIPOS>BOND
1     1     2     1
2     1     17    1
3     1     18    1
4     1     19    1
5     2     3     1
6     2     4     1
7     3     20    1
8     3     21    1
9     3     22    1
10    4     16    ar
11    4     5     ar
12    5     6     ar
13    6     7     1
14    6     10    ar
15    7     8     1
16    7     9     1
17    8     23    1
18    8     24    1
19    8     25    1
20    9     26    1
21    9     27    1
22    9     28    1
23    10    11    1
24    10    12    ar
25    12    13    1
26    12    16    ar
27    13    14    1
28    13    15    1
29    14    29    1
30    14    30    1
31    14    31    1
32    15    32    1
33    15    33    1
34    15    34    1
@<TRIPOS>SUBSTRUCTURE
1   ZINC000000000905 1     RESIDUE    1   A     ZIN   1
