@<TRIPOS>MOLECULE
ZINC000003831490
41   43    0    0    0
SMALL
USER_CHARGES
NO_NAME
@<TRIPOS>ATOM
1 O1        0.0021    -0.0046     0.0409 O.co2  1 <0>      -0.6900
2 C2       -0.0144     1.2192     0.0383 C.2    1 <0>       0.5200
3 O3        1.0372     1.8454     0.0333 O.co2  1 <0>      -0.6600
4 C4       -1.2956     1.9360     0.0352 C.2    1 <0>      -0.1900
5 C5       -2.4940     1.2366     0.0409 C.2    1 <0>      -0.0400
6 C6       -3.7114     1.9422     0.0377 C.2    1 <0>       0.0900
7 N7       -4.8629     1.2709     0.0432 N.2    1 <0>      -0.1900
8 N8       -5.9800     1.9073     0.1492 N.pl3  1 <0>      -0.5000
9 C9       -7.1756     1.2016     0.2617 C.ar   1 <0>       0.2400
10 C10      -7.1667    -0.1892     0.2658 C.ar   1 <0>      -0.1700
11 C11      -8.3538    -0.8849     0.3780 C.ar   1 <0>       0.0100
12 C12      -9.5511    -0.2006     0.4863 C.ar   1 <0>      -0.7100
13 S13     -11.0634    -1.0933     0.6293 S.o2   1 <0>       2.7000
14 O14     -12.0888    -0.2211     0.1743 O.2    1 <0>      -0.9300
15 O15     -10.8271    -2.3760     0.0652 O.2    1 <0>      -0.9500
16 N16     -11.3385    -1.3362     2.2441 N.am   1 <0>      -1.0400
17 C17     -11.5737    -0.2507     3.0800 C.ar   1 <0>       0.3800
18 C18     -11.7984    -0.4613     4.4365 C.ar   1 <0>      -0.2000
19 C19     -12.0307     0.6280     5.2570 C.ar   1 <0>      -0.0400
20 C20     -12.0305     1.8958     4.6911 C.ar   1 <0>      -0.2000
21 C21     -11.8002     2.0318     3.3366 C.ar   1 <0>       0.1500
22 N22     -11.5765     0.9750     2.5788 N.ar   1 <0>      -0.5200
23 C23      -9.5642     1.1826     0.4831 C.ar   1 <0>       0.0400
24 C24      -8.3810     1.8858     0.3762 C.ar   1 <0>      -0.2000
25 C25      -3.7257     3.3573     0.0292 C.2    1 <0>      -0.1100
26 C26      -2.5744     4.0666     0.0235 C.2    1 <0>      -0.1600
27 C27      -1.3283     3.4029     0.0321 C.2    1 <0>       0.3900
28 O28      -0.2882     4.0431     0.0273 O.2    1 <0>      -0.4200
29 H29      -2.4924     0.1566     0.0473 H      1 <0>       0.1500
30 H30      -5.9874     2.8772     0.1505 H      1 <0>       0.3900
31 H31      -6.2323    -0.7241     0.1809 H      1 <0>       0.1500
32 H32      -8.3477    -1.9649     0.3809 H      1 <0>       0.1400
33 H33     -11.3355    -2.2358     2.6067 H      1 <0>       0.4300
34 H34     -11.7919    -1.4616     4.8435 H      1 <0>       0.1400
35 H35     -12.2086     0.4952     6.3139 H      1 <0>       0.1400
36 H36     -12.2090     2.7669     5.3042 H      1 <0>       0.1400
37 H37     -11.7992     3.0161     2.8922 H      1 <0>       0.1600
38 H38     -10.5011     1.7131     0.5683 H      1 <0>       0.1600
39 H39      -8.3921     2.9657     0.3741 H      1 <0>       0.1300
40 H40      -4.6713     3.8790     0.0269 H      1 <0>       0.1200
41 H41      -2.6084     5.1461     0.0171 H      1 <0>       0.1400
@<TRIPOS>BOND
1    1    2 ar
2    2    3 ar
3    2    4 1
4    4   27 1
5    4    5 2
6    5    6 1
7    5   29 1
8    6    7 2
9    6   25 1
10    7    8 1
11    8    9 1
12    8   30 1
13    9   24 ar
14    9   10 ar
15   10   11 ar
16   10   31 1
17   11   12 ar
18   11   32 1
19   12   13 1
20   12   23 ar
21   13   14 2
22   13   15 2
23   13   16 am
24   16   17 1
25   16   33 1
26   17   22 ar
27   17   18 ar
28   18   19 ar
29   18   34 1
30   19   20 ar
31   19   35 1
32   20   21 ar
33   20   36 1
34   21   22 ar
35   21   37 1
36   23   24 ar
37   23   38 1
38   24   39 1
39   25   26 2
40   25   40 1
41   26   27 1
42   26   41 1
43   27   28 2
