@<TRIPOS>MOLECULE
ZINC000004095696
49    49    1     0     0
SMALL
USER_CHARGES
@<TRIPOS>ATOM
1      C1     -0.0308    2.3757    3.0287 C.3      1 ZINC000004095696   -0.1100
2      C2     -0.6149    1.0297    2.5955 C.3      1 ZINC000004095696   -0.1000
3      C3     -2.0504    0.7565    3.0492 C.3      1 ZINC000004095696   -0.1000
4      C4     -0.1873    0.4796    1.2333 C.3      1 ZINC000004095696   -0.1500
5      C5      0.3404   -0.1629    2.5177 C.3      1 ZINC000004095696   -0.1800
6      H6      1.3851    0.0115    2.7752 H        1 ZINC000004095696    0.1100
7      C7     -0.2042   -1.5170    2.8931 C.2      1 ZINC000004095696    0.5400
8      O8     -1.3608   -1.6305    3.2403 O.2      1 ZINC000004095696   -0.4900
9      N9      0.5939   -2.6018    2.8429 N.am     1 ZINC000004095696   -0.6700
10     C10     0.1194   -3.8425    3.2912 C.2      1 ZINC000004095696    0.0700
11     C11     0.7440   -4.4763    4.2893 C.2      1 ZINC000004095696   -0.1800
12     C12     1.8856   -3.8064    5.0098 C.3      1 ZINC000004095696   -0.0800
13     C13     1.5973   -3.7834    6.5122 C.3      1 ZINC000004095696   -0.1100
14     C14     2.7563   -3.1033    7.2436 C.3      1 ZINC000004095696   -0.1000
15     C15     2.4680   -3.0803    8.7460 C.3      1 ZINC000004095696   -0.0700
16     S16     3.8421   -2.2739    9.6132 S.3      1 ZINC000004095696   -0.3000
17     C17     3.3246   -2.3422   11.3504 C.3      1 ZINC000004095696   -0.1000
18     C18     4.3956   -1.6907   12.2276 C.3      1 ZINC000004095696   -0.0300
19     H19     4.5273   -0.6509   11.9283 H        1 ZINC000004095696    0.1400
20     N20     5.6655   -2.4113   12.0663 N.4      1 ZINC000004095696   -0.6100
21     H21     5.5436   -3.3738   12.3434 H        1 ZINC000004095696    0.4300
22     H22     5.9534   -2.3734   11.1000 H        1 ZINC000004095696    0.4200
23     H23     6.3718   -1.9817   12.6448 H        1 ZINC000004095696    0.4300
24     C24     3.9656   -1.7474   13.6709 C.2      1 ZINC000004095696    0.5000
25     O25     4.5480   -2.4801   14.4521 O.co2    1 ZINC000004095696   -0.6700
26     O26     3.0353   -1.0606   14.0572 O.co2    1 ZINC000004095696   -0.6300
27     C27    -1.0664   -4.4474    2.6632 C.2      1 ZINC000004095696    0.5200
28     O28    -1.4327   -5.5657    2.9983 O.co2    1 ZINC000004095696   -0.6900
29     O29    -1.6858   -3.8320    1.8062 O.co2    1 ZINC000004095696   -0.6700
30     H30     0.7484    2.6761    2.3282 H        1 ZINC000004095696    0.0600
31     H31    -0.8197    3.1278    3.0390 H        1 ZINC000004095696    0.0600
32     H32     0.3952    2.2823    4.0277 H        1 ZINC000004095696    0.0600
33     H33    -2.6132    1.6899    3.0557 H        1 ZINC000004095696    0.0400
34     H34    -2.5210    0.0532    2.3621 H        1 ZINC000004095696    0.0700
35     H35    -2.0395    0.3317    4.0530 H        1 ZINC000004095696    0.0700
36     H36    -0.9288   -0.0770    0.6600 H        1 ZINC000004095696    0.1000
37     H37     0.5101    1.0766    0.6458 H        1 ZINC000004095696    0.1000
38     H38     1.4967   -2.5242    2.4967 H        1 ZINC000004095696    0.3900
39     H39     0.4303   -5.4682    4.5792 H        1 ZINC000004095696    0.1300
40     H40     2.8065   -4.3595    4.8249 H        1 ZINC000004095696    0.0600
41     H41     1.9959   -2.7850    4.6453 H        1 ZINC000004095696    0.0600
42     H42     0.6764   -3.2302    6.6970 H        1 ZINC000004095696    0.0700
43     H43     1.4870   -4.8047    6.8766 H        1 ZINC000004095696    0.0700
44     H44     3.6772   -3.6564    7.0588 H        1 ZINC000004095696    0.0700
45     H45     2.8666   -2.0819    6.8791 H        1 ZINC000004095696    0.0700
46     H46     1.5471   -2.5271    8.9308 H        1 ZINC000004095696    0.0900
47     H47     2.3577   -4.1016    9.1104 H        1 ZINC000004095696    0.0900
48     H48     2.3823   -1.8075   11.4701 H        1 ZINC000004095696    0.1300
49     H49     3.1929   -3.3820   11.6497 H        1 ZINC000004095696    0.1000
@<TRIPOS>BOND
1     1     2     1
2     1     30    1
3     1     31    1
4     1     32    1
5     2     5     1
6     2     3     1
7     2     4     1
8     3     33    1
9     3     34    1
10    3     35    1
11    4     5     1
12    4     36    1
13    4     37    1
14    5     6     1
15    5     7     1
16    7     8     2
17    7     9     am
18    9     10    1
19    9     38    1
20    10    11    2
21    10    27    1
22    11    12    1
23    11    39    1
24    12    13    1
25    12    40    1
26    12    41    1
27    13    14    1
28    13    42    1
29    13    43    1
30    14    15    1
31    14    44    1
32    14    45    1
33    15    16    1
34    15    46    1
35    15    47    1
36    16    17    1
37    17    18    1
38    17    48    1
39    17    49    1
40    18    19    1
41    18    20    1
42    18    24    1
43    20    21    1
44    20    22    1
45    20    23    1
46    24    25    ar
47    24    26    ar
48    27    28    ar
49    27    29    ar
@<TRIPOS>SUBSTRUCTURE
1   ZINC000004095696 1     RESIDUE    1   A     ZIN   1
