@<TRIPOS>MOLECULE
ZINC000000004893
37    40    1     0     0
SMALL
USER_CHARGES
@<TRIPOS>ATOM
1      C1     -0.0178    1.4648    0.0101 C.3      1 ZINC000000004893   -0.0500
2      N2      0.0021   -0.0041    0.0020 N.4      1 ZINC000000004893   -0.4000
3      H3     -0.9430   -0.3574   -0.0042 H        1 ZINC000000004893    0.4300
4      C4      0.7263   -0.4888   -1.2042 C.3      1 ZINC000000004893    0.0000
5      C5      1.4907   -1.7248   -0.7038 C.3      1 ZINC000000004893   -0.0600
6      H6      0.7891   -2.5546   -0.6186 H        1 ZINC000000004893    0.1100
7      C7      2.6313   -2.1538   -1.5402 C.ar     1 ZINC000000004893   -0.1200
8      C8      3.0287   -1.4628   -2.6667 C.ar     1 ZINC000000004893   -0.1000
9      C9      4.1253   -1.8948   -3.3912 C.ar     1 ZINC000000004893   -0.1100
10     C10     4.8274   -3.0160   -2.9892 C.ar     1 ZINC000000004893   -0.0800
11     C11     4.4257   -3.7195   -1.8687 C.ar     1 ZINC000000004893   -0.1100
12     C12     3.3178   -3.2979   -1.1531 C.ar     1 ZINC000000004893    0.1200
13     O13     2.8364   -4.0035   -0.1113 O.3      1 ZINC000000004893   -0.2800
14     C14     2.8524   -3.5974    1.1725 C.ar     1 ZINC000000004893    0.1400
15     C15     3.3138   -4.5223    2.1112 C.ar     1 ZINC000000004893   -0.1200
16     C16     3.3921   -4.2007    3.4474 C.ar     1 ZINC000000004893   -0.0700
17     C17     3.0088   -2.9387    3.8657 C.ar     1 ZINC000000004893   -0.0400
18     Cl18    3.1129   -2.5092    5.5446 Cl       1 ZINC000000004893   -0.0500
19     C19     2.5448   -2.0242    2.9464 C.ar     1 ZINC000000004893   -0.0900
20     C20     2.4486   -2.3392    1.5911 C.ar     1 ZINC000000004893   -0.1200
21     C21     1.9046   -1.3012    0.6903 C.3      1 ZINC000000004893   -0.0600
22     H22     2.7059   -0.5766    0.5452 H        1 ZINC000000004893    0.1000
23     C23     0.7141   -0.5012    1.2068 C.3      1 ZINC000000004893    0.0000
24     H24     1.0047    1.8421    0.0024 H        1 ZINC000000004893    0.1200
25     H25    -0.5450    1.8259   -0.8730 H        1 ZINC000000004893    0.1300
26     H26    -0.5280    1.8163    0.9069 H        1 ZINC000000004893    0.1300
27     H27     0.0213   -0.7665   -1.9878 H        1 ZINC000000004893    0.1500
28     H28     1.4206    0.2704   -1.5644 H        1 ZINC000000004893    0.1400
29     H29     2.4838   -0.5855   -2.9827 H        1 ZINC000000004893    0.1300
30     H30     4.4338   -1.3547   -4.2741 H        1 ZINC000000004893    0.1400
31     H31     5.6899   -3.3427   -3.5510 H        1 ZINC000000004893    0.1400
32     H32     4.9739   -4.5948   -1.5530 H        1 ZINC000000004893    0.1400
33     H33     3.6140   -5.5066    1.7836 H        1 ZINC000000004893    0.1500
34     H34     3.7491   -4.9268    4.1626 H        1 ZINC000000004893    0.1500
35     H35     2.2486   -1.0415    3.2824 H        1 ZINC000000004893    0.1400
36     H36     1.0582    0.3307    1.8212 H        1 ZINC000000004893    0.1400
37     H37     0.0499   -1.1454    1.7830 H        1 ZINC000000004893    0.1400
@<TRIPOS>BOND
1     1     2     1
2     1     24    1
3     1     25    1
4     1     26    1
5     2     3     1
6     2     23    1
7     2     4     1
8     4     5     1
9     4     27    1
10    4     28    1
11    5     6     1
12    5     21    1
13    5     7     1
14    7     12    ar
15    7     8     ar
16    8     9     ar
17    8     29    1
18    9     10    ar
19    9     30    1
20    10    11    ar
21    10    31    1
22    11    12    ar
23    11    32    1
24    12    13    1
25    13    14    1
26    14    20    ar
27    14    15    ar
28    15    16    ar
29    15    33    1
30    16    17    ar
31    16    34    1
32    17    18    1
33    17    19    ar
34    19    20    ar
35    19    35    1
36    20    21    1
37    21    22    1
38    21    23    1
39    23    36    1
40    23    37    1
@<TRIPOS>SUBSTRUCTURE
1   ZINC000000004893 1     RESIDUE    1   A     ZIN   1
