@<TRIPOS>MOLECULE
ZINC000000005560
32    33    1     0     0
SMALL
USER_CHARGES
@<TRIPOS>ATOM
1      C1      0.5088    2.1693    0.5665 C.3      1 ZINC000000005560   -0.1200
2      C2      0.4901    0.6937    0.1625 C.3      1 ZINC000000005560   -0.1300
3      H3      1.1397    0.5449   -0.7000 H        1 ZINC000000005560    0.0700
4      C4     -0.9172    0.2879   -0.1925 C.2      1 ZINC000000005560    0.5000
5      O5     -1.5025    0.8498   -1.1025 O.co2    1 ZINC000000005560   -0.7000
6      O6     -1.4704   -0.6024    0.4303 O.co2    1 ZINC000000005560   -0.6900
7      C7      0.9808   -0.1481    1.3122 C.ar     1 ZINC000000005560   -0.0400
8      C8      0.3061   -0.1275    2.5200 C.ar     1 ZINC000000005560   -0.0400
9      C9      0.7497   -0.8975    3.5812 C.ar     1 ZINC000000005560   -0.1400
10     C10     1.8687   -1.6912    3.4410 C.ar     1 ZINC000000005560   -0.0800
11     C11     2.5545   -1.7172    2.2242 C.ar     1 ZINC000000005560   -0.1800
12     C12     3.7542   -2.5651    2.0665 C.2      1 ZINC000000005560    0.4400
13     O13     4.0677   -3.3440    2.9454 O.2      1 ZINC000000005560   -0.4600
14     C14     4.5727   -2.4662    0.8405 C.ar     1 ZINC000000005560   -0.1500
15     C15     4.7200   -1.2376    0.1924 C.ar     1 ZINC000000005560   -0.0800
16     C16     5.4859   -1.1525   -0.9514 C.ar     1 ZINC000000005560   -0.1300
17     C17     6.1079   -2.2806   -1.4571 C.ar     1 ZINC000000005560   -0.1000
18     C18     5.9663   -3.5010   -0.8202 C.ar     1 ZINC000000005560   -0.1300
19     C19     5.2076   -3.5996    0.3274 C.ar     1 ZINC000000005560   -0.0700
20     C20     2.0982   -0.9417    1.1561 C.ar     1 ZINC000000005560   -0.0900
21     H21     1.5266    2.4628    0.8233 H        1 ZINC000000005560    0.0400
22     H22     0.1538    2.7782   -0.2650 H        1 ZINC000000005560    0.0600
23     H23    -0.1408    2.3181    1.4291 H        1 ZINC000000005560    0.0500
24     H24    -0.5707    0.4925    2.6354 H        1 ZINC000000005560    0.1200
25     H25     0.2185   -0.8764    4.5213 H        1 ZINC000000005560    0.1200
26     H26     2.2142   -2.2910    4.2701 H        1 ZINC000000005560    0.1200
27     H27     4.2349   -0.3565    0.5858 H        1 ZINC000000005560    0.1400
28     H28     5.6004   -0.2033   -1.4537 H        1 ZINC000000005560    0.1300
29     H29     6.7062   -2.2083   -2.3533 H        1 ZINC000000005560    0.1300
30     H30     6.4544   -4.3773   -1.2203 H        1 ZINC000000005560    0.1300
31     H31     5.0980   -4.5527    0.8235 H        1 ZINC000000005560    0.1300
32     H32     2.6234   -0.9574    0.2125 H        1 ZINC000000005560    0.1300
@<TRIPOS>BOND
1     1     2     1
2     1     21    1
3     1     22    1
4     1     23    1
5     2     3     1
6     2     4     1
7     2     7     1
8     4     5     ar
9     4     6     ar
10    7     20    ar
11    7     8     ar
12    8     9     ar
13    8     24    1
14    9     10    ar
15    9     25    1
16    10    11    ar
17    10    26    1
18    11    12    1
19    11    20    ar
20    12    13    2
21    12    14    1
22    14    19    ar
23    14    15    ar
24    15    16    ar
25    15    27    1
26    16    17    ar
27    16    28    1
28    17    18    ar
29    17    29    1
30    18    19    ar
31    18    30    1
32    19    31    1
33    20    32    1
@<TRIPOS>SUBSTRUCTURE
1   ZINC000000005560 1     RESIDUE    1   A     ZIN   1
