@<TRIPOS>MOLECULE
ZINC000000643143
65   69    0    0    0
SMALL
USER_CHARGES
NO_NAME
@<TRIPOS>ATOM
1 C1        1.3103    -0.7502    -2.3790 C.3    1 <0>      -0.1800
2 C2       -0.0050    -0.0145    -2.3820 C.2    1 <0>       0.5100
3 O3       -0.0215     1.1982    -2.3893 O.2    1 <0>      -0.5400
4 N4       -1.1629    -0.7042    -2.3764 N.am   1 <0>      -0.6200
5 C5       -1.1581    -2.1738    -2.3613 C.3    1 <0>       0.0900
6 C6       -1.9865    -2.6543    -1.1633 C.3    1 <0>       0.1100
7 N7       -3.2765    -1.9502    -1.1718 N.pl3  1 <0>      -0.6300
8 C8       -4.4788    -2.6663    -1.1651 C.ar   1 <0>       0.2000
9 C9       -5.6881    -1.9925    -1.0572 C.ar   1 <0>      -0.1600
10 C10      -6.8742    -2.7000    -1.0512 C.ar   1 <0>      -0.0900
11 C11      -6.8576    -4.0832    -1.1524 C.ar   1 <0>       0.0600
12 O12      -8.0261    -4.7792    -1.1459 O.3    1 <0>      -0.3200
13 C13      -7.9348    -6.2012    -1.2535 C.3    1 <0>       0.0700
14 C14      -9.3401    -6.8057    -1.2288 C.3    1 <0>       0.0500
15 H15      -9.8897    -6.4746    -0.3477 H      1 <0>       0.0800
16 C16      -9.2798    -8.3522    -1.2961 C.3    1 <0>       0.0200
17 O17     -10.5463    -8.7026    -1.8896 O.3    1 <0>      -0.3500
18 C18     -11.0258    -7.5443    -2.5852 C.3    1 <0>       0.2900
19 C19     -12.3649    -7.1048    -1.9897 C.3    1 <0>       0.0700
20 N20     -12.1897    -6.7975    -0.5680 N.pl3  1 <0>      -0.4100
21 C21     -12.3172    -7.6755     0.4744 C.2    1 <0>       0.0300
22 C22     -12.0727    -6.9802     1.6015 C.2    1 <0>       0.0000
23 N23     -11.8033    -5.7123     1.2567 N.pl3  1 <0>      -0.4700
24 H24     -11.5912    -4.9953     1.8746 H      1 <0>       0.4700
25 C25     -11.8666    -5.5966    -0.0417 C.cat  1 <0>       0.2900
26 C26     -11.2036    -7.8686    -4.0462 C.ar   1 <0>      -0.1000
27 C27     -12.4450    -7.7325    -4.6379 C.ar   1 <0>      -0.0800
28 C28     -12.6090    -8.0302    -5.9779 C.ar   1 <0>      -0.1000
29 C29     -11.5302    -8.4641    -6.7274 C.ar   1 <0>       0.0000
30 Cl30    -11.7362    -8.8374    -8.4103 Cl     1 <0>      -0.0300
31 C31     -10.2871    -8.6001    -6.1356 C.ar   1 <0>      -0.1000
32 C32     -10.1225    -8.2971    -4.7962 C.ar   1 <0>       0.0200
33 Cl33     -8.5629    -8.4669    -4.0529 Cl     1 <0>      -0.0400
34 O34     -10.0634    -6.4857    -2.4416 O.3    1 <0>      -0.3300
35 C35      -5.6502    -4.7570    -1.2606 C.ar   1 <0>      -0.1500
36 C36      -4.4634    -4.0507    -1.2721 C.ar   1 <0>      -0.1600
37 C37      -3.2813    -0.4807    -1.1869 C.3    1 <0>       0.1100
38 C38      -2.4529    -0.0001    -2.3792 C.3    1 <0>       0.0900
39 H39       2.1290    -0.0307    -2.3844 H      1 <0>       0.1000
40 H40       1.3776    -1.3706    -1.4853 H      1 <0>       0.0900
41 H41       1.3755    -1.3814    -3.2653 H      1 <0>       0.0900
42 H42      -1.5978    -2.5505    -3.2848 H      1 <0>       0.0800
43 H43      -0.1342    -2.5353    -2.2666 H      1 <0>       0.1000
44 H44      -2.1553    -3.7282    -1.2425 H      1 <0>       0.1000
45 H45      -1.4546    -2.4322    -0.2382 H      1 <0>       0.0700
46 H46      -5.7012    -0.9155    -0.9777 H      1 <0>       0.1300
47 H47      -7.8149    -2.1761    -0.9673 H      1 <0>       0.1300
48 H48      -7.4427    -6.4638    -2.1899 H      1 <0>       0.0800
49 H49      -7.3562    -6.5925    -0.4167 H      1 <0>       0.0800
50 H50      -8.4544    -8.6784    -1.9290 H      1 <0>       0.1000
51 H51      -9.1918    -8.7782    -0.2967 H      1 <0>       0.1200
52 H52     -12.7209    -6.2169    -2.5122 H      1 <0>       0.1500
53 H53     -13.0931    -7.9082    -2.1008 H      1 <0>       0.1500
54 H54     -12.5663    -8.7241     0.4061 H      1 <0>       0.2300
55 H55     -12.0904    -7.3744     2.6068 H      1 <0>       0.2300
56 H56     -11.6956    -4.6893    -0.6019 H      1 <0>       0.2600
57 H57     -13.2875    -7.3938    -4.0532 H      1 <0>       0.1500
58 H58     -13.5796    -7.9244    -6.4397 H      1 <0>       0.1500
59 H59      -9.4446    -8.9388    -6.7203 H      1 <0>       0.1500
60 H60      -5.6382    -5.8341    -1.3393 H      1 <0>       0.1200
61 H61      -3.5232    -4.5756    -1.3563 H      1 <0>       0.1300
62 H62      -4.3052    -0.1191    -1.2816 H      1 <0>       0.1000
63 H63      -2.8416    -0.1039    -0.2634 H      1 <0>       0.0700
64 H64      -2.2849     1.0738    -2.2989 H      1 <0>       0.1000
65 H65      -2.9826    -0.2217    -3.3058 H      1 <0>       0.0700
@<TRIPOS>BOND
1    1    2 1
2    1   39 1
3    1   40 1
4    1   41 1
5    2    3 2
6    2    4 am
7    4   38 1
8    4    5 1
9    5    6 1
10    5   42 1
11    5   43 1
12    6    7 1
13    6   44 1
14    6   45 1
15    7    8 1
16    7   37 1
17    8   36 ar
18    8    9 ar
19    9   10 ar
20    9   46 1
21   10   11 ar
22   10   47 1
23   11   12 1
24   11   35 ar
25   12   13 1
26   13   14 1
27   13   48 1
28   13   49 1
29   14   15 1
30   14   34 1
31   14   16 1
32   16   17 1
33   16   50 1
34   16   51 1
35   17   18 1
36   18   19 1
37   18   26 1
38   18   34 1
39   19   20 1
40   19   52 1
41   19   53 1
42   20   25 ar
43   20   21 1
44   21   22 2
45   21   54 1
46   22   23 1
47   22   55 1
48   23   24 1
49   23   25 ar
50   25   56 1
51   26   32 ar
52   26   27 ar
53   27   28 ar
54   27   57 1
55   28   29 ar
56   28   58 1
57   29   30 1
58   29   31 ar
59   31   32 ar
60   31   59 1
61   32   33 1
62   35   36 ar
63   35   60 1
64   36   61 1
65   37   38 1
66   37   62 1
67   37   63 1
68   38   64 1
69   38   65 1
