@<TRIPOS>MOLECULE
ZINC000003927822
71   77    0    0    0
SMALL
NO_CHARGES
@<TRIPOS>ATOM
1 O1             0.0821     0.3820     0.4337 O.2
2 C2             0.0978     1.5531     0.7464 C.2
3 C3            -1.1234     2.3960     1.0363 C.3
4 H4            -1.7442     1.9873     1.8336 H
5 C5            -1.9039     2.6061    -0.2960 C.3
6 H6            -2.1134     1.7045    -0.8716 H
7 C7            -3.1449     3.4595     0.1074 C.3
8 C8            -2.5678     4.8541     0.4415 C.3
9 C9            -1.0328     4.7118     0.2078 C.3
10 H10           -0.4864     5.6428     0.0572 H
11 C11           -1.0017     3.6811    -0.9978 C.3
12 C12           -0.5235     3.7890     1.3802 C.3
13 H13           -0.8171     4.1512     2.3654 H
14 C14            0.9713     3.6141     1.2356 C.2
15 O15            1.7984     4.4819     1.4153 O.2
16 N16            1.1986     2.2990     0.8943 N.am
17 C17            2.5422     1.7595     0.6706 C.3
18 C18            3.1034     1.2253     1.9898 C.3
19 H19            2.4087     0.4998     2.4130 H
20 C20            3.2908     2.3843     2.9709 C.3
21 C21            3.8521     1.8500     4.2902 C.3
22 C22            5.2012     1.1752     4.0344 C.3
23 C23            5.0138     0.0162     3.0533 C.3
24 C24            4.4525     0.5504     1.7340 C.3
25 H25            5.1473     1.2759     1.3109 H
26 C26            4.2651    -0.6086     0.7530 C.3
27 N27            5.5643    -1.2413     0.4886 N.3
28 C28            6.5637    -0.2430     0.0854 C.3
29 C29            7.9401    -0.9106    -0.0044 C.3
30 N30            7.8357    -2.0793    -0.8911 N.pl3
31 C31            8.7269    -2.2566    -1.9506 C.2
32 N32            8.4741    -1.7801    -3.1238 N.2
33 S33            9.7510    -2.1721    -4.1650 S.3
34 C34           10.7140    -3.0411    -2.9680 C.ar
35 C35           11.9390    -3.6916    -3.0184 C.ar
36 C36           12.4390    -4.2913    -1.8837 C.ar
37 C37           11.7177    -4.2429    -0.6973 C.ar
38 C38           10.5148    -3.6098    -0.6302 C.ar
39 C39            9.9762    -2.9797    -1.7708 C.ar
40 C40            6.7674    -3.0564    -0.6316 C.3
41 C41            5.4372    -2.3044    -0.5171 C.3
42 H42           -3.8459     3.5277    -0.7245 H
43 H43           -3.6329     3.0305     0.9826 H
44 H44           -2.9855     5.6080    -0.2257 H
45 H45           -2.7717     5.1105     1.4811 H
46 H46            0.0065     3.3198    -1.2008 H
47 H47           -1.4741     4.0850    -1.8932 H
48 H48            2.4920     0.9498    -0.0574 H
49 H49            3.1921     2.5485     0.2922 H
50 H50            3.9856     3.1098     2.5477 H
51 H51            2.3297     2.8651     3.1531 H
52 H52            3.9856     2.6757     4.9891 H
53 H53            3.1574     1.1245     4.7133 H
54 H54            5.8960     1.9007     3.6112 H
55 H55            5.6011     0.7946     4.9742 H
56 H56            5.9749    -0.4646     2.8711 H
57 H57            4.3191    -0.7093     3.4765 H
58 H58            3.5844    -1.3428     1.1837 H
59 H59            3.8485    -0.2306    -0.1806 H
60 H60            6.2948     0.1684    -0.8874 H
61 H61            6.5956     0.5584     0.8235 H
62 H62            8.6635    -0.2047    -0.4126 H
63 H63            8.2571    -1.2311     0.9881 H
64 H64           12.4970    -3.7277    -3.9424 H
65 H65           13.3915    -4.7994    -1.9163 H
66 H66           12.1183    -4.7162     0.1870 H
67 H67            9.9721    -3.5856     0.3032 H
68 H68            6.7154    -3.7693    -1.4546 H
69 H69            6.9716    -3.5832     0.3005 H
70 H70            4.6520    -2.9980    -0.2161 H
71 H71            5.1840    -1.8642    -1.4816 H
@<TRIPOS>BOND
1    1    2 2
2    2   16 am
3    2    3 1
4    3    4 1
5    3   12 1
6    3    5 1
7    5    6 1
8    5   11 1
9    5    7 1
10    7    8 1
11    7   42 1
12    7   43 1
13    8    9 1
14    8   44 1
15    8   45 1
16    9   10 1
17    9   11 1
18    9   12 1
19   11   46 1
20   11   47 1
21   12   13 1
22   12   14 1
23   14   15 2
24   14   16 am
25   16   17 1
26   17   18 1
27   17   48 1
28   17   49 1
29   18   19 1
30   18   24 1
31   18   20 1
32   20   21 1
33   20   50 1
34   20   51 1
35   21   22 1
36   21   52 1
37   21   53 1
38   22   23 1
39   22   54 1
40   22   55 1
41   23   24 1
42   23   56 1
43   23   57 1
44   24   25 1
45   24   26 1
46   26   27 1
47   26   58 1
48   26   59 1
49   27   41 1
50   27   28 1
51   28   29 1
52   28   60 1
53   28   61 1
54   29   30 1
55   29   62 1
56   29   63 1
57   30   31 1
58   30   40 1
59   31   39 1
60   31   32 2
61   32   33 1
62   33   34 1
63   34   39 ar
64   34   35 ar
65   35   36 ar
66   35   64 1
67   36   37 ar
68   36   65 1
69   37   38 ar
70   37   66 1
71   38   39 ar
72   38   67 1
73   40   41 1
74   40   68 1
75   40   69 1
76   41   70 1
77   41   71 1
