@<TRIPOS>MOLECULE
ZINC000002539827
31   32    0    0    0
SMALL
USER_CHARGES
NO_NAME
@<TRIPOS>ATOM
1 C1       -0.0187     1.5258     0.0104 C.3    1 <0>      -0.1800
2 C2        0.0021    -0.0041     0.0020 C.3    1 <0>       0.0700
3 H3       -1.0205    -0.3814     0.0098 H      1 <0>       0.1100
4 O4        0.6932    -0.4774     1.1597 O.3    1 <0>      -0.5600
5 C5        0.7182    -0.4975    -1.2568 C.3    1 <0>       0.0700
6 H6        1.7408    -0.1202    -1.2645 H      1 <0>       0.0800
7 O7        0.0271    -0.0241    -2.4145 O.3    1 <0>      -0.5500
8 C8        0.7390    -2.0273    -1.2652 C.3    1 <0>       0.1200
9 H9        1.2653    -2.3933    -0.3837 H      1 <0>       0.0800
10 C10       1.4415    -2.5298    -2.5349 C.3    1 <0>       0.1300
11 N11       0.6552    -2.0995    -3.7000 N.pl3  1 <0>      -0.7200
12 C12      -0.7210    -2.2633    -3.6811 C.2    1 <0>       0.4100
13 C13      -1.3747    -2.4829    -2.4767 C.2    1 <0>      -0.1800
14 N14      -0.6394    -2.5434    -1.2714 N.pl3  1 <0>      -0.7400
15 C15      -2.7643    -2.6428    -2.4764 C.2    1 <0>       0.5200
16 O16      -3.3704    -2.8362    -1.4334 O.2    1 <0>      -0.6400
17 N17      -3.4213    -2.5781    -3.6551 N.pl3  1 <0>      -0.7100
18 C18      -2.7341    -2.3627    -4.8099 C.2    1 <0>       0.5800
19 N19      -3.4211    -2.3021    -5.9960 N.pl3  1 <0>      -0.8400
20 N20      -1.4270    -2.2111    -4.8169 N.2    1 <0>      -0.6800
21 H21       1.0039     1.9031     0.0027 H      1 <0>       0.0500
22 H22      -0.5459     1.8868    -0.8726 H      1 <0>       0.0700
23 H23      -0.5289     1.8773     0.9072 H      1 <0>       0.0600
24 H24       1.6114    -0.1800     1.2187 H      1 <0>       0.3700
25 H25      -0.8911    -0.3216    -2.4734 H      1 <0>       0.3800
26 H26       2.4442    -2.1062    -2.5919 H      1 <0>       0.0700
27 H27       1.5026    -3.6179    -2.5147 H      1 <0>       0.0500
28 H28       1.0932    -1.7061    -4.4709 H      1 <0>       0.3900
29 H29      -1.0341    -2.9165    -0.4677 H      1 <0>       0.3900
30 H30      -4.3848    -2.4122    -6.0044 H      1 <0>       0.4000
31 H31      -2.9431    -2.1491    -6.8260 H      1 <0>       0.3900
@<TRIPOS>BOND
1    1    2 1
2    1   21 1
3    1   22 1
4    1   23 1
5    2    3 1
6    2    4 1
7    2    5 1
8    4   24 1
9    5    6 1
10    5    7 1
11    5    8 1
12    7   25 1
13    8    9 1
14    8   14 1
15    8   10 1
16   10   11 1
17   10   26 1
18   10   27 1
19   11   12 1
20   11   28 1
21   12   20 1
22   12   13 2
23   13   14 1
24   13   15 1
25   14   29 1
26   15   16 2
27   15   17 1
28   17   18 1
29   18   19 1
30   18   20 2
31   19   30 1
32   19   31 1
