@<TRIPOS>MOLECULE
ZINC000001849548
22   23    0    0    0
SMALL
USER_CHARGES
NO_NAME
@<TRIPOS>ATOM
1 O1        0.0021    -0.0041     0.0020 O.2    1 <0>      -0.1300
2 N2       -0.0144     1.2138     0.0087 N.pl3  1 <0>       0.1200
3 O3        1.0320     1.8371     0.0021 O.2    1 <0>      -0.0600
4 O4       -1.2502     1.9051     0.0183 O.3    1 <0>      -0.1900
5 C5       -2.3948     1.0495     0.0191 C.3    1 <0>       0.0200
6 H6       -2.1964     0.1410     0.5878 H      1 <0>       0.1400
7 C7       -2.8256     0.7097    -1.4231 C.3    1 <0>       0.0400
8 O8       -4.2570     0.7202    -1.4585 O.3    1 <0>      -0.3500
9 C9       -4.7887     1.0433    -0.1664 C.3    1 <0>       0.0600
10 H10      -5.1532     0.1701     0.3747 H      1 <0>       0.1200
11 C11      -5.8607     2.1449    -0.3328 C.3    1 <0>       0.0700
12 H12      -6.3144     2.0876    -1.3223 H      1 <0>       0.0900
13 O13      -6.8608     2.0246     0.6808 O.3    1 <0>      -0.5500
14 C14      -5.0862     3.4661    -0.1727 C.3    1 <0>       0.0200
15 O15      -3.7005     3.1320     0.0026 O.3    1 <0>      -0.3500
16 C16      -3.6347     1.7901     0.5806 C.3    1 <0>       0.0600
17 H17      -3.7153     1.7787     1.6676 H      1 <0>       0.1300
18 H18      -2.4329     1.4572    -2.1124 H      1 <0>       0.0900
19 H19      -2.4559    -0.2785    -1.6966 H      1 <0>       0.1000
20 H20      -7.5595     2.6907     0.6250 H      1 <0>       0.3900
21 H21      -5.2094     4.0784    -1.0661 H      1 <0>       0.1000
22 H22      -5.4506     4.0056     0.7015 H      1 <0>       0.0800
@<TRIPOS>BOND
1    1    2 2
2    2    3 2
3    2    4 1
4    4    5 1
5    5    6 1
6    5   16 1
7    5    7 1
8    7    8 1
9    7   18 1
10    7   19 1
11    8    9 1
12    9   10 1
13    9   16 1
14    9   11 1
15   11   12 1
16   11   13 1
17   11   14 1
18   13   20 1
19   14   15 1
20   14   21 1
21   14   22 1
22   15   16 1
23   16   17 1
