@<TRIPOS>MOLECULE
ZINC000001530759
53    54    1     0     0
SMALL
USER_CHARGES
@<TRIPOS>ATOM
1      C1     -0.0187    1.5258    0.0104 C.3      1 ZINC000001530759   -0.1600
2      C2      0.0021   -0.0041    0.0020 C.3      1 ZINC000001530759   -0.1500
3      C3      0.7421   -0.5109    1.2415 C.3      1 ZINC000001530759   -0.0100
4      N4      0.7620   -1.9797    1.2335 N.4      1 ZINC000001530759   -0.5000
5      H5     -0.1846   -2.3290    1.2406 H        1 ZINC000001530759    0.4300
6      H6      1.2343   -2.3051    0.4033 H        1 ZINC000001530759    0.4300
7      C7      1.4725   -2.4664    2.4236 C.3      1 ZINC000001530759   -0.0400
8      C8      1.4932   -3.9962    2.4152 C.3      1 ZINC000001530759    0.0900
9      H9      2.0034   -4.3477    1.5184 H        1 ZINC000001530759    0.1400
10     O10     0.1526   -4.4908    2.4253 O.3      1 ZINC000001530759   -0.5400
11     C11     2.2332   -4.5030    3.6547 C.3      1 ZINC000001530759    0.0200
12     O12     2.3545   -5.9254    3.5887 O.3      1 ZINC000001530759   -0.2700
13     C13     2.9903   -6.5374    4.6182 C.ar     1 ZINC000001530759    0.1700
14     C14     3.4842   -5.7892    5.6758 C.ar     1 ZINC000001530759   -0.2300
15     C15     4.1314   -6.4138    6.7236 C.ar     1 ZINC000001530759   -0.0500
16     C16     4.2932   -7.7901    6.7291 C.ar     1 ZINC000001530759   -0.1600
17     C17     3.8096   -8.5515    5.6883 C.ar     1 ZINC000001530759   -0.0300
18     C18     3.1469   -7.9335    4.6213 C.ar     1 ZINC000001530759   -0.2000
19     C19     2.6280   -8.7377    3.5084 C.2      1 ZINC000001530759    0.4000
20     O20     2.0544   -8.1980    2.5859 O.2      1 ZINC000001530759   -0.4400
21     C21     2.8080  -10.2339    3.5119 C.3      1 ZINC000001530759   -0.1600
22     C22     2.1807  -10.8260    2.2482 C.3      1 ZINC000001530759   -0.0700
23     C23     2.3606  -12.3222    2.2517 C.ar     1 ZINC000001530759   -0.0900
24     C24     3.4882  -12.8841    1.6828 C.ar     1 ZINC000001530759   -0.1200
25     C25     3.6533  -14.2565    1.6860 C.ar     1 ZINC000001530759   -0.1200
26     C26     2.6910  -15.0671    2.2586 C.ar     1 ZINC000001530759   -0.1200
27     C27     1.5638  -14.5052    2.8283 C.ar     1 ZINC000001530759   -0.1200
28     C28     1.4008  -13.1325    2.8289 C.ar     1 ZINC000001530759   -0.1200
29     H29     1.0039    1.9031    0.0027 H        1 ZINC000001530759    0.0700
30     H30    -0.5459    1.8868   -0.8726 H        1 ZINC000001530759    0.0800
31     H31    -0.5289    1.8773    0.9072 H        1 ZINC000001530759    0.0700
32     H32    -1.0205   -0.3814    0.0098 H        1 ZINC000001530759    0.0900
33     H33     0.5123   -0.3556   -0.8948 H        1 ZINC000001530759    0.0900
34     H34     1.7647   -0.1336    1.2338 H        1 ZINC000001530759    0.1300
35     H35     0.2319   -0.1594    2.1383 H        1 ZINC000001530759    0.1300
36     H36     2.4951   -2.0891    2.4158 H        1 ZINC000001530759    0.1500
37     H37     0.9623   -2.1149    3.3204 H        1 ZINC000001530759    0.1400
38     H38    -0.3619   -4.2167    3.1968 H        1 ZINC000001530759    0.3900
39     H39     3.2262   -4.0551    3.6935 H        1 ZINC000001530759    0.0800
40     H40     1.6749   -4.2271    4.5493 H        1 ZINC000001530759    0.0800
41     H41     3.3627   -4.7161    5.6800 H        1 ZINC000001530759    0.1300
42     H42     4.5146   -5.8256    7.5444 H        1 ZINC000001530759    0.1300
43     H43     4.8013   -8.2681    7.5535 H        1 ZINC000001530759    0.1400
44     H44     3.9381   -9.6238    5.6972 H        1 ZINC000001530759    0.1400
45     H45     3.8714  -10.4719    3.5354 H        1 ZINC000001530759    0.1000
46     H46     2.3216  -10.6563    4.3912 H        1 ZINC000001530759    0.1000
47     H47     1.1172  -10.5880    2.2247 H        1 ZINC000001530759    0.0800
48     H48     2.6670  -10.4036    1.3690 H        1 ZINC000001530759    0.0800
49     H49     4.2401  -12.2508    1.2355 H        1 ZINC000001530759    0.1200
50     H50     4.5339  -14.6955    1.2408 H        1 ZINC000001530759    0.1200
51     H51     2.8196  -16.1394    2.2604 H        1 ZINC000001530759    0.1200
52     H52     0.8118  -15.1385    3.2753 H        1 ZINC000001530759    0.1200
53     H53     0.5202  -12.6934    3.2741 H        1 ZINC000001530759    0.1200
@<TRIPOS>BOND
1     1     2     1
2     1     29    1
3     1     30    1
4     1     31    1
5     2     3     1
6     2     32    1
7     2     33    1
8     3     4     1
9     3     34    1
10    3     35    1
11    4     5     1
12    4     6     1
13    4     7     1
14    7     8     1
15    7     36    1
16    7     37    1
17    8     9     1
18    8     10    1
19    8     11    1
20    10    38    1
21    11    12    1
22    11    39    1
23    11    40    1
24    12    13    1
25    13    18    ar
26    13    14    ar
27    14    15    ar
28    14    41    1
29    15    16    ar
30    15    42    1
31    16    17    ar
32    16    43    1
33    17    18    ar
34    17    44    1
35    18    19    1
36    19    20    2
37    19    21    1
38    21    22    1
39    21    45    1
40    21    46    1
41    22    23    1
42    22    47    1
43    22    48    1
44    23    28    ar
45    23    24    ar
46    24    25    ar
47    24    49    1
48    25    26    ar
49    25    50    1
50    26    27    ar
51    26    51    1
52    27    28    ar
53    27    52    1
54    28    53    1
@<TRIPOS>SUBSTRUCTURE
1   ZINC000001530759 1     RESIDUE    1   A     ZIN   1
