@<TRIPOS>MOLECULE
ZINC000003079336
26    25    1     0     0
SMALL
USER_CHARGES
@<TRIPOS>ATOM
1      C1      0.4551    1.0929    0.2194 C.3      1 ZINC000003079336   -0.1500
2      C2      0.2511   -0.3995    0.1742 C.2      1 ZINC000003079336    0.4600
3      O3      1.2061   -1.1396    0.1600 O.2      1 ZINC000003079336   -0.4900
4      O4     -0.9914   -0.9067    0.1497 O.3      1 ZINC000003079336   -0.3700
5      C5     -1.1124   -2.3530    0.1064 C.3      1 ZINC000003079336    0.0300
6      C6     -2.5923   -2.7405    0.0835 C.3      1 ZINC000003079336    0.0000
7      N7     -3.1958   -2.2944   -1.1793 N.4      1 ZINC000003079336   -0.2700
8      C8     -2.4222   -2.8293   -2.3076 C.3      1 ZINC000003079336   -0.0500
9      C9     -4.5795   -2.7813   -1.2596 C.3      1 ZINC000003079336   -0.0500
10     C10    -3.1894   -0.8264   -1.2333 C.3      1 ZINC000003079336   -0.0500
11     H11     1.5224    1.3135    0.2342 H        1 ZINC000003079336    0.1100
12     H12     0.0021    1.5484   -0.6611 H        1 ZINC000003079336    0.1000
13     H13    -0.0118    1.4964    1.1180 H        1 ZINC000003079336    0.1100
14     H14    -0.6237   -2.7317   -0.7912 H        1 ZINC000003079336    0.1000
15     H15    -0.6376   -2.7838    0.9879 H        1 ZINC000003079336    0.1200
16     H16    -2.6857   -3.8232    0.1684 H        1 ZINC000003079336    0.1500
17     H17    -3.1054   -2.2650    0.9194 H        1 ZINC000003079336    0.1400
18     H18    -2.4269   -3.9186   -2.2675 H        1 ZINC000003079336    0.1200
19     H19    -2.8700   -2.4983   -3.2446 H        1 ZINC000003079336    0.1300
20     H20    -1.3955   -2.4680   -2.2480 H        1 ZINC000003079336    0.1200
21     H21    -5.1535   -2.3844   -0.4224 H        1 ZINC000003079336    0.1200
22     H22    -5.0273   -2.4503   -2.1966 H        1 ZINC000003079336    0.1200
23     H23    -4.5842   -3.8706   -1.2195 H        1 ZINC000003079336    0.1200
24     H24    -2.1682   -0.4724   -1.3742 H        1 ZINC000003079336    0.1300
25     H25    -3.8083   -0.4907   -2.0654 H        1 ZINC000003079336    0.1200
26     H26    -3.5871   -0.4267   -0.3004 H        1 ZINC000003079336    0.1200
@<TRIPOS>BOND
1     1     2     1
2     1     11    1
3     1     12    1
4     1     13    1
5     2     3     2
6     2     4     1
7     4     5     1
8     5     6     1
9     5     14    1
10    5     15    1
11    6     7     1
12    6     16    1
13    6     17    1
14    7     8     1
15    7     9     1
16    7     10    1
17    8     18    1
18    8     19    1
19    8     20    1
20    9     21    1
21    9     22    1
22    9     23    1
23    10    24    1
24    10    25    1
25    10    26    1
@<TRIPOS>SUBSTRUCTURE
1   ZINC000003079336 1     RESIDUE    1   A     ZIN   1
