@<TRIPOS>MOLECULE
ZINC000014164617
73    76    1     0     0
SMALL
USER_CHARGES
@<TRIPOS>ATOM
1      C1     -0.0187    1.5258    0.0104 C.3      1 ZINC000014164617   -0.1600
2      C2      0.0021   -0.0041    0.0020 C.3      1 ZINC000014164617   -0.1200
3      C3     -1.4333   -0.5336    0.0129 C.3      1 ZINC000014164617   -0.1100
4      H4     -1.9700   -0.1108    0.8622 H        1 ZINC000014164617    0.0800
5      C5     -2.1353   -0.1306   -1.2856 C.3      1 ZINC000014164617    0.1100
6      H6     -2.1481    0.9561   -1.3696 H        1 ZINC000014164617    0.0600
7      O7     -1.4330   -0.6863   -2.3992 O.3      1 ZINC000014164617   -0.5500
8      C8     -3.5707   -0.6581   -1.2732 C.3      1 ZINC000014164617   -0.0600
9      H9     -4.1099   -0.2377   -0.4243 H        1 ZINC000014164617    0.0900
10     C10    -4.2795   -0.2908   -2.5633 C.3      1 ZINC000014164617   -0.0800
11     H11    -3.7906   -0.7669   -3.4133 H        1 ZINC000014164617    0.0800
12     C12    -4.4614    1.2085   -2.8230 C.3      1 ZINC000014164617   -0.1100
13     C13    -5.6631    1.2476   -3.8063 C.3      1 ZINC000014164617   -0.1200
14     C14    -6.4579   -0.0622   -3.5772 C.3      1 ZINC000014164617   -0.0700
15     H15    -6.4292   -0.6830   -4.4727 H        1 ZINC000014164617    0.0700
16     C16    -7.9061    0.2556   -3.1995 C.3      1 ZINC000014164617   -0.0900
17     H17    -7.9204    0.8681   -2.2980 H        1 ZINC000014164617    0.0700
18     C18    -8.6640   -1.0483   -2.9423 C.3      1 ZINC000014164617   -0.1500
19     C19    -8.5762    1.0177   -4.3445 C.3      1 ZINC000014164617   -0.0900
20     C20    -9.9826    1.4442   -3.9190 C.3      1 ZINC000014164617   -0.1800
21     C21   -10.6427    2.1948   -5.0468 C.2      1 ZINC000014164617    0.4900
22     O22   -10.0437    2.3723   -6.0939 O.co2    1 ZINC000014164617   -0.7000
23     O23   -11.7756    2.6247   -4.9122 O.co2    1 ZINC000014164617   -0.7100
24     C24    -5.7454   -0.7861   -2.4324 C.3      1 ZINC000014164617   -0.0500
25     C25    -6.3081   -0.3120   -1.0910 C.3      1 ZINC000014164617   -0.1600
26     C26    -5.7490   -2.3013   -2.4820 C.3      1 ZINC000014164617   -0.1000
27     C27    -4.9758   -2.8013   -1.2501 C.3      1 ZINC000014164617   -0.1200
28     C28    -3.5436   -2.1905   -1.1636 C.3      1 ZINC000014164617   -0.0700
29     H29    -2.9598   -2.5383   -2.0158 H        1 ZINC000014164617    0.0800
30     C30    -2.8573   -2.6461    0.1248 C.3      1 ZINC000014164617   -0.0500
31     C31    -3.6307   -2.1120    1.3320 C.3      1 ZINC000014164617   -0.1500
32     C32    -2.8247   -4.1753    0.1716 C.3      1 ZINC000014164617   -0.1000
33     C33    -2.0559   -4.7054   -1.0404 C.3      1 ZINC000014164617   -0.1500
34     C34    -0.6250   -4.1645   -1.0132 C.3      1 ZINC000014164617    0.1100
35     H35    -0.1303   -4.4918   -0.0987 H        1 ZINC000014164617    0.0400
36     O36     0.0926   -4.6586   -2.1459 O.3      1 ZINC000014164617   -0.5700
37     C37    -0.6564   -2.6355   -1.0568 C.3      1 ZINC000014164617   -0.1500
38     C38    -1.4130   -2.0590    0.1308 C.3      1 ZINC000014164617   -0.0600
39     H39    -0.9275   -2.3684    1.0563 H        1 ZINC000014164617    0.0600
40     H40     1.0039    1.9031    0.0027 H        1 ZINC000014164617    0.0500
41     H41    -0.5459    1.8868   -0.8726 H        1 ZINC000014164617    0.0600
42     H42    -0.5289    1.8773    0.9072 H        1 ZINC000014164617    0.0500
43     H43     0.5123   -0.3556   -0.8948 H        1 ZINC000014164617    0.0700
44     H44     0.5293   -0.3651    0.8851 H        1 ZINC000014164617    0.0600
45     H45    -0.5136   -0.3949   -2.4695 H        1 ZINC000014164617    0.3700
46     H46    -4.7022    1.7337   -1.8987 H        1 ZINC000014164617    0.0600
47     H47    -3.5698    1.6306   -3.2866 H        1 ZINC000014164617    0.0600
48     H48    -6.2939    2.1103   -3.5921 H        1 ZINC000014164617    0.0700
49     H49    -5.3039    1.2922   -4.8344 H        1 ZINC000014164617    0.0600
50     H50    -8.1866   -1.5913   -2.1266 H        1 ZINC000014164617    0.0600
51     H51    -9.6957   -0.8219   -2.6733 H        1 ZINC000014164617    0.0500
52     H52    -8.6497   -1.6608   -3.8439 H        1 ZINC000014164617    0.0500
53     H53    -7.9863    1.9016   -4.5870 H        1 ZINC000014164617    0.0600
54     H54    -8.6416    0.3729   -5.2209 H        1 ZINC000014164617    0.0500
55     H55   -10.5726    0.5603   -3.6766 H        1 ZINC000014164617    0.0600
56     H56    -9.9172    2.0890   -3.0426 H        1 ZINC000014164617    0.0500
57     H57    -7.3697   -0.5534   -1.0366 H        1 ZINC000014164617    0.0600
58     H58    -5.7799   -0.8111   -0.2786 H        1 ZINC000014164617    0.0600
59     H59    -6.1757    0.7663   -1.0021 H        1 ZINC000014164617    0.0500
60     H60    -6.7740   -2.6709   -2.4516 H        1 ZINC000014164617    0.0700
61     H61    -5.2574   -2.6437   -3.3926 H        1 ZINC000014164617    0.0600
62     H62    -5.5025   -2.4903   -0.3480 H        1 ZINC000014164617    0.0600
63     H63    -4.9281   -3.8900   -1.2766 H        1 ZINC000014164617    0.0600
64     H64    -4.6506   -2.4957    1.3088 H        1 ZINC000014164617    0.0600
65     H65    -3.1410   -2.4370    2.2500 H        1 ZINC000014164617    0.0500
66     H66    -3.6513   -1.0227    1.2973 H        1 ZINC000014164617    0.0600
67     H67    -2.3297   -4.5005    1.0867 H        1 ZINC000014164617    0.0600
68     H68    -3.8439   -4.5613    0.1527 H        1 ZINC000014164617    0.0700
69     H69    -2.0333   -5.7946   -1.0084 H        1 ZINC000014164617    0.0600
70     H70    -2.5503   -4.3790   -1.9554 H        1 ZINC000014164617    0.0800
71     H71     0.1527   -5.6230   -2.1833 H        1 ZINC000014164617    0.3700
72     H72     0.3632   -2.2505   -1.0365 H        1 ZINC000014164617    0.0600
73     H73    -1.1501   -2.3083   -1.9717 H        1 ZINC000014164617    0.1400
@<TRIPOS>BOND
1     1     2     1
2     1     40    1
3     1     41    1
4     1     42    1
5     2     3     1
6     2     43    1
7     2     44    1
8     3     4     1
9     3     38    1
10    3     5     1
11    5     6     1
12    5     7     1
13    5     8     1
14    7     45    1
15    8     9     1
16    8     28    1
17    8     10    1
18    10    11    1
19    10    24    1
20    10    12    1
21    12    13    1
22    12    46    1
23    12    47    1
24    13    14    1
25    13    48    1
26    13    49    1
27    14    15    1
28    14    16    1
29    14    24    1
30    16    17    1
31    16    18    1
32    16    19    1
33    18    50    1
34    18    51    1
35    18    52    1
36    19    20    1
37    19    53    1
38    19    54    1
39    20    21    1
40    20    55    1
41    20    56    1
42    21    22    ar
43    21    23    ar
44    24    25    1
45    24    26    1
46    25    57    1
47    25    58    1
48    25    59    1
49    26    27    1
50    26    60    1
51    26    61    1
52    27    28    1
53    27    62    1
54    27    63    1
55    28    29    1
56    28    30    1
57    30    38    1
58    30    31    1
59    30    32    1
60    31    64    1
61    31    65    1
62    31    66    1
63    32    33    1
64    32    67    1
65    32    68    1
66    33    34    1
67    33    69    1
68    33    70    1
69    34    35    1
70    34    36    1
71    34    37    1
72    36    71    1
73    37    38    1
74    37    72    1
75    37    73    1
76    38    39    1
@<TRIPOS>SUBSTRUCTURE
1   ZINC000014164617 1     RESIDUE    1   A     ZIN   1
