@<TRIPOS>MOLECULE
ZINC000013973998
49    49    1     0     0
SMALL
USER_CHARGES
@<TRIPOS>ATOM
1      C1     -6.5232   -2.4754    2.5847 C.3      1 ZINC000013973998   -0.1400
2      C2     -5.1567   -1.8129    2.3985 C.3      1 ZINC000013973998   -0.0900
3      C3     -4.2939   -2.0669    3.6362 C.3      1 ZINC000013973998   -0.1400
4      C4     -4.4778   -2.3940    1.1850 C.2      1 ZINC000013973998    0.4600
5      O5     -5.0303   -3.2502    0.5358 O.2      1 ZINC000013973998   -0.5000
6      O6     -3.2594   -1.9604    0.8255 O.3      1 ZINC000013973998   -0.3500
7      C7     -2.6185   -2.6416   -0.2851 C.3      1 ZINC000013973998    0.2800
8      H8     -2.7127   -3.7195   -0.1533 H        1 ZINC000013973998    0.1300
9      C9     -1.1373   -2.2609   -0.3306 C.3      1 ZINC000013973998   -0.1900
10     O10    -3.2578   -2.2483   -1.5280 O.3      1 ZINC000013973998   -0.3700
11     C11    -3.1759   -0.9494   -1.8732 C.2      1 ZINC000013973998    0.6400
12     O12    -2.6757   -0.1481   -1.1089 O.2      1 ZINC000013973998   -0.5600
13     N13    -3.6487   -0.5381   -3.0664 N.am     1 ZINC000013973998   -0.6900
14     C14    -3.5596    0.8751   -3.4419 C.3      1 ZINC000013973998    0.1300
15     C15    -4.2714    1.0935   -4.7785 C.3      1 ZINC000013973998   -0.0400
16     C16    -4.0824    2.5443   -5.2259 C.3      1 ZINC000013973998   -0.1800
17     C17    -2.6111    2.8402   -5.3628 C.2      1 ZINC000013973998    0.4900
18     O18    -1.7917    1.9570   -5.1757 O.co2    1 ZINC000013973998   -0.6800
19     O19    -2.2401    3.9628   -5.6605 O.co2    1 ZINC000013973998   -0.7000
20     C20    -3.6795    0.1540   -5.8311 C.3      1 ZINC000013973998   -0.1200
21     C21    -4.3913    0.3724   -7.1677 C.3      1 ZINC000013973998   -0.1200
22     C22    -5.8841    0.0794   -7.0043 C.3      1 ZINC000013973998   -0.1200
23     C23    -6.4760    1.0189   -5.9518 C.3      1 ZINC000013973998   -0.1200
24     C24    -5.7642    0.8005   -4.6152 C.3      1 ZINC000013973998   -0.1100
25     H25    -7.0142   -2.0551    3.4623 H        1 ZINC000013973998    0.0700
26     H26    -7.1379   -2.2945    1.7029 H        1 ZINC000013973998    0.0600
27     H27    -6.3910   -3.5487    2.7214 H        1 ZINC000013973998    0.0600
28     H28    -5.2889   -0.7396    2.2617 H        1 ZINC000013973998    0.1100
29     H29    -3.3204   -1.5949    3.5036 H        1 ZINC000013973998    0.0700
30     H30    -4.7849   -1.6465    4.5139 H        1 ZINC000013973998    0.0700
31     H31    -4.1617   -3.1401    3.7730 H        1 ZINC000013973998    0.0600
32     H32    -1.0432   -1.1830   -0.4624 H        1 ZINC000013973998    0.1000
33     H33    -0.6574   -2.5562    0.6024 H        1 ZINC000013973998    0.0800
34     H34    -0.6562   -2.7722   -1.1644 H        1 ZINC000013973998    0.0900
35     H35    -4.0480   -1.1778   -3.6765 H        1 ZINC000013973998    0.4000
36     H36    -4.0339    1.4858   -2.6737 H        1 ZINC000013973998    0.0500
37     H37    -2.5119    1.1603   -3.5374 H        1 ZINC000013973998    0.1200
38     H38    -4.5742    2.6953   -6.1869 H        1 ZINC000013973998    0.0700
39     H39    -4.5201    3.2131   -4.4848 H        1 ZINC000013973998    0.0600
40     H40    -2.6160    0.3627   -5.9474 H        1 ZINC000013973998    0.1100
41     H41    -3.8141   -0.8796   -5.5123 H        1 ZINC000013973998    0.0400
42     H42    -4.2566    1.4060   -7.4864 H        1 ZINC000013973998    0.0700
43     H43    -3.9696   -0.2970   -7.9175 H        1 ZINC000013973998    0.0500
44     H44    -6.3912    0.2350   -7.9566 H        1 ZINC000013973998    0.0500
45     H45    -6.0187   -0.9542   -6.6856 H        1 ZINC000013973998    0.0500
46     H46    -6.3413    2.0525   -6.2705 H        1 ZINC000013973998    0.0700
47     H47    -7.5395    0.8102   -5.8355 H        1 ZINC000013973998    0.0500
48     H48    -5.8988   -0.2331   -4.2965 H        1 ZINC000013973998    0.0500
49     H49    -6.1859    1.4698   -3.8654 H        1 ZINC000013973998    0.0600
@<TRIPOS>BOND
1     1     2     1
2     1     25    1
3     1     26    1
4     1     27    1
5     2     3     1
6     2     4     1
7     2     28    1
8     3     29    1
9     3     30    1
10    3     31    1
11    4     5     2
12    4     6     1
13    6     7     1
14    7     8     1
15    7     9     1
16    7     10    1
17    9     32    1
18    9     33    1
19    9     34    1
20    10    11    1
21    11    12    2
22    11    13    am
23    13    14    1
24    13    35    1
25    14    15    1
26    14    36    1
27    14    37    1
28    15    24    1
29    15    16    1
30    15    20    1
31    16    17    1
32    16    38    1
33    16    39    1
34    17    18    ar
35    17    19    ar
36    20    21    1
37    20    40    1
38    20    41    1
39    21    22    1
40    21    42    1
41    21    43    1
42    22    23    1
43    22    44    1
44    22    45    1
45    23    24    1
46    23    46    1
47    23    47    1
48    24    48    1
49    24    49    1
@<TRIPOS>SUBSTRUCTURE
1   ZINC000013973998 1     RESIDUE    1   A     ZIN   1
