@<TRIPOS>MOLECULE
ZINC000001530935
46   48    0    0    0
SMALL
USER_CHARGES
NO_NAME
@<TRIPOS>ATOM
1 C1       -0.0173     1.4248     0.0099 C.3    1 <0>       0.0300
2 O2        0.0021    -0.0041     0.0020 O.3    1 <0>      -0.3900
3 C3       -1.2953    -0.6030     0.0112 C.3    1 <0>       0.0600
4 C4       -1.1538    -2.1264     0.0017 C.3    1 <0>      -0.1200
5 C5       -2.5429    -2.7677     0.0115 C.3    1 <0>       0.0600
6 O6       -2.4108    -4.1905     0.0026 O.3    1 <0>      -0.3000
7 C7       -3.5580    -4.9160     0.0096 C.ar   1 <0>       0.1800
8 C8       -4.8004    -4.2872     0.0191 C.ar   1 <0>      -0.2600
9 C9       -5.9435    -5.0601     0.0261 C.ar   1 <0>       0.1400
10 N10      -5.8689    -6.3775     0.0239 N.ar   1 <0>      -0.5000
11 C11      -4.7104    -7.0097     0.0151 C.ar   1 <0>       0.1700
12 C12      -4.6851    -8.5165     0.0125 C.3    1 <0>      -0.4100
13 S13      -4.6865    -9.1184    -1.6987 S.o    1 <0>       1.4200
14 O14      -5.9609    -8.8843    -2.2821 O.2    1 <0>      -0.8200
15 C15      -4.6556   -10.8692    -1.5031 C.2    1 <0>      -0.0700
16 N16      -3.5763   -11.5911    -1.4219 N.2    1 <0>      -0.4100
17 C17      -3.9116   -12.8988    -1.2755 C.ar   1 <0>       0.0300
18 C18      -3.1693   -14.0749    -1.1435 C.ar   1 <0>      -0.0500
19 C19      -3.8112   -15.2737    -1.0094 C.ar   1 <0>      -0.1300
20 C20      -5.1970   -15.3375    -1.0026 C.ar   1 <0>      -0.0900
21 C21      -5.9501   -14.1896    -1.1318 C.ar   1 <0>      -0.1200
22 C22      -5.3155   -12.9629    -1.2687 C.ar   1 <0>       0.0600
23 N23      -5.7569   -11.6623    -1.4090 N.pl3  1 <0>      -0.5700
24 C24      -3.5226    -6.3084     0.0018 C.ar   1 <0>      -0.1600
25 C25      -2.2044    -7.0388    -0.0088 C.3    1 <0>      -0.1200
26 H26       1.0053     1.8021     0.0021 H      1 <0>       0.0900
27 H27      -0.5445     1.7859    -0.8732 H      1 <0>       0.0400
28 H28      -0.5275     1.7763     0.9067 H      1 <0>       0.0400
29 H29      -1.8320    -0.2936     0.9080 H      1 <0>       0.0500
30 H30      -1.8490    -0.2840    -0.8718 H      1 <0>       0.0500
31 H31      -0.6171    -2.4359    -0.8952 H      1 <0>       0.0900
32 H32      -0.6001    -2.4454     0.8847 H      1 <0>       0.0900
33 H33      -3.0796    -2.4582     0.9083 H      1 <0>       0.0700
34 H34      -3.0966    -2.4487    -0.8716 H      1 <0>       0.0700
35 H35      -4.8683    -3.2094     0.0212 H      1 <0>       0.1400
36 H36      -6.9113    -4.5808     0.0338 H      1 <0>       0.1600
37 H37      -3.7856    -8.8656     0.5197 H      1 <0>       0.1500
38 H38      -5.5653    -8.8956     0.5318 H      1 <0>       0.1100
39 H39      -2.0900   -14.0367    -1.1479 H      1 <0>       0.1400
40 H40      -3.2338   -16.1807    -0.9080 H      1 <0>       0.1300
41 H41      -5.6894   -16.2928    -0.8956 H      1 <0>       0.1300
42 H42      -7.0287   -14.2449    -1.1266 H      1 <0>       0.1300
43 H43      -6.6810   -11.3686    -1.4365 H      1 <0>       0.4300
44 H44      -1.8965    -7.2177    -1.0389 H      1 <0>       0.0800
45 H45      -1.4504    -6.4351     0.4962 H      1 <0>       0.0800
46 H46      -2.3131    -7.9920     0.5087 H      1 <0>       0.0800
@<TRIPOS>BOND
1    1    2 1
2    1   26 1
3    1   27 1
4    1   28 1
5    2    3 1
6    3    4 1
7    3   29 1
8    3   30 1
9    4    5 1
10    4   31 1
11    4   32 1
12    5    6 1
13    5   33 1
14    5   34 1
15    6    7 1
16    7   24 ar
17    7    8 ar
18    8    9 ar
19    8   35 1
20    9   10 ar
21    9   36 1
22   10   11 ar
23   11   12 1
24   11   24 ar
25   12   13 1
26   12   37 1
27   12   38 1
28   13   14 2
29   13   15 1
30   15   23 1
31   15   16 2
32   16   17 1
33   17   22 ar
34   17   18 ar
35   18   19 ar
36   18   39 1
37   19   20 ar
38   19   40 1
39   20   21 ar
40   20   41 1
41   21   22 ar
42   21   42 1
43   22   23 1
44   23   43 1
45   24   25 1
46   25   44 1
47   25   45 1
48   25   46 1
