@<TRIPOS>MOLECULE
ZINC000000897385
37   39    0    0    0
SMALL
USER_CHARGES
NO_NAME
@<TRIPOS>ATOM
1 Cl1       0.0021    -0.0041     0.0020 Cl     1 <0>      -0.0100
2 C2       -0.0215     1.7317     0.0116 C.2    1 <0>      -0.1600
3 C3       -1.1225     2.4865     0.0319 C.2    1 <0>      -0.1000
4 C4       -2.5094     1.8973     0.0495 C.3    1 <0>       0.1200
5 O5       -3.4744     2.9511     0.0700 O.3    1 <0>      -0.3600
6 C6       -4.8295     2.4980     0.0878 C.3    1 <0>       0.1200
7 H7       -4.8997     1.5417    -0.4305 H      1 <0>       0.1000
8 C8       -5.2915     2.3280     1.5364 C.3    1 <0>       0.0700
9 N9       -4.5173     1.2600     2.1738 N.pl3  1 <0>      -0.4100
10 C10      -4.8353    -0.0712     2.1962 C.2    1 <0>       0.0200
11 C11      -3.8583    -0.6936     2.8830 C.2    1 <0>       0.0100
12 N12      -2.9681     0.2323     3.2694 N.pl3  1 <0>      -0.4800
13 H13      -2.1628     0.0579     3.7813 H      1 <0>       0.4700
14 C14      -3.3537     1.4041     2.8438 C.cat  1 <0>       0.2900
15 C15      -5.7066     3.5097    -0.6038 C.ar   1 <0>      -0.1000
16 C16      -5.3117     4.8321    -0.6754 C.ar   1 <0>      -0.0600
17 C17      -6.1159     5.7609    -1.3092 C.ar   1 <0>      -0.1000
18 C18      -7.3164     5.3668    -1.8725 C.ar   1 <0>      -0.0100
19 Cl19     -8.3260     6.5332    -2.6689 Cl     1 <0>      -0.0400
20 C20      -7.7121     4.0430    -1.8015 C.ar   1 <0>      -0.1000
21 C21      -6.9046     3.1133    -1.1718 C.ar   1 <0>      -0.0100
22 Cl22     -7.4000     1.4519    -1.0826 Cl     1 <0>      -0.0500
23 C23      -0.8929     3.8520     0.0362 C.2    1 <0>      -0.1200
24 C24       0.3927     4.2058     0.0194 C.2    1 <0>      -0.2000
25 S25       1.4016     2.7653     0.0035 S.3    1 <0>       0.1900
26 H26      -2.6564     1.2874    -0.8419 H      1 <0>       0.0800
27 H27      -2.6296     1.2773     0.9378 H      1 <0>       0.0500
28 H28      -5.1380     3.2611     2.0786 H      1 <0>       0.1400
29 H29      -6.3500     2.0685     1.5522 H      1 <0>       0.1400
30 H30      -5.7030    -0.5334     1.7493 H      1 <0>       0.2200
31 H31      -3.8016    -1.7527     3.0870 H      1 <0>       0.2300
32 H32      -2.8322     2.3358     3.0063 H      1 <0>       0.2600
33 H33      -4.3746     5.1402    -0.2358 H      1 <0>       0.1500
34 H34      -5.8071     6.7943    -1.3643 H      1 <0>       0.1500
35 H35      -8.6493     3.7349    -2.2411 H      1 <0>       0.1500
36 H36      -1.6943     4.5757     0.0517 H      1 <0>       0.1600
37 H37       0.7586     5.2220     0.0191 H      1 <0>       0.1800
@<TRIPOS>BOND
1    1    2 1
2    2   25 1
3    2    3 2
4    3    4 1
5    3   23 1
6    4    5 1
7    4   26 1
8    4   27 1
9    5    6 1
10    6    7 1
11    6    8 1
12    6   15 1
13    8    9 1
14    8   28 1
15    8   29 1
16    9   14 ar
17    9   10 1
18   10   11 2
19   10   30 1
20   11   12 1
21   11   31 1
22   12   13 1
23   12   14 ar
24   14   32 1
25   15   21 ar
26   15   16 ar
27   16   17 ar
28   16   33 1
29   17   18 ar
30   17   34 1
31   18   19 1
32   18   20 ar
33   20   21 ar
34   20   35 1
35   21   22 1
36   23   24 2
37   23   36 1
38   24   25 1
39   24   37 1
