@<TRIPOS>MOLECULE
ZINC000019632713
56    57    1     0     0
SMALL
USER_CHARGES
@<TRIPOS>ATOM
1      C1      3.6676   -2.0930    4.1918 C.3      1 ZINC000019632713    0.0300
2      O2      2.8680   -2.2275    3.0151 O.3      1 ZINC000019632713   -0.3800
3      C3      1.8193   -3.1911    3.1320 C.3      1 ZINC000019632713    0.0600
4      C4      1.0328   -3.2506    1.8209 C.3      1 ZINC000019632713    0.0600
5      O5      1.8802   -3.7386    0.7789 O.3      1 ZINC000019632713   -0.3400
6      C6      1.3358   -3.8523   -0.4507 C.2      1 ZINC000019632713    0.5300
7      O7      0.1725   -3.5448   -0.6319 O.2      1 ZINC000019632713   -0.4900
8      C8      2.1173   -4.3287   -1.5287 C.2      1 ZINC000019632713   -0.2300
9      C9      2.3073   -5.6520   -1.6688 C.2      1 ZINC000019632713    0.1900
10     C10     1.6938   -6.6016   -0.6723 C.3      1 ZINC000019632713   -0.1300
11     N11     3.0506   -6.1474   -2.7052 N.pl3    1 ZINC000019632713   -0.6300
12     C12     3.3097   -5.3711   -3.8016 C.2      1 ZINC000019632713    0.2400
13     C13     3.7663   -6.0208   -5.0824 C.3      1 ZINC000019632713   -0.1200
14     C14     3.1623   -4.0360   -3.7503 C.2      1 ZINC000019632713   -0.2600
15     C15     3.4315   -3.2653   -4.9050 C.2      1 ZINC000019632713    0.5200
16     O16     3.7923   -3.8118   -5.9307 O.2      1 ZINC000019632713   -0.5200
17     O17     3.2882   -1.9239   -4.8695 O.3      1 ZINC000019632713   -0.3400
18     C18     3.5773   -1.2086   -6.0723 C.3      1 ZINC000019632713    0.0800
19     C19     2.7150    0.0537   -6.1347 C.3      1 ZINC000019632713   -0.1500
20     C20     5.0563   -0.8172   -6.0901 C.3      1 ZINC000019632713   -0.1700
21     C21     2.7122   -3.3452   -2.4962 C.3      1 ZINC000019632713    0.0900
22     H22     1.9702   -2.5882   -2.7500 H        1 ZINC000019632713    0.1000
23     C23     3.8966   -2.6798   -1.8439 C.ar     1 ZINC000019632713   -0.0700
24     C24     4.9825   -3.4370   -1.4466 C.ar     1 ZINC000019632713   -0.0500
25     C25     6.0691   -2.8265   -0.8481 C.ar     1 ZINC000019632713   -0.1200
26     C26     6.0696   -1.4591   -0.6475 C.ar     1 ZINC000019632713   -0.0500
27     C27     4.9838   -0.7015   -1.0457 C.ar     1 ZINC000019632713   -0.0400
28     N28     4.9841    0.7629   -0.8303 N.pl3    1 ZINC000019632713    0.0300
29     O29     5.9410    1.3006   -0.3023 O.2      1 ZINC000019632713   -0.1600
30     O30     4.0275    1.4303   -1.1811 O.2      1 ZINC000019632713   -0.1600
31     C31     3.8993   -1.3112   -1.6479 C.ar     1 ZINC000019632713   -0.0300
32     H32     4.1345   -3.0499    4.4251 H        1 ZINC000019632713    0.0400
33     H33     4.4404   -1.3433    4.0222 H        1 ZINC000019632713    0.0900
34     H34     3.0376   -1.7832    5.0256 H        1 ZINC000019632713    0.0400
35     H35     2.2479   -4.1708    3.3433 H        1 ZINC000019632713    0.0600
36     H36     1.1510   -2.9041    3.9438 H        1 ZINC000019632713    0.0700
37     H37     0.1800   -3.9191    1.9388 H        1 ZINC000019632713    0.0900
38     H38     0.6790   -2.2522    1.5639 H        1 ZINC000019632713    0.0800
39     H39     0.7120   -6.9157   -1.0266 H        1 ZINC000019632713    0.0900
40     H40     2.3360   -7.4751   -0.5598 H        1 ZINC000019632713    0.0900
41     H41     1.5896   -6.1008    0.2902 H        1 ZINC000019632713    0.0900
42     H42     3.3956   -7.0530   -2.6623 H        1 ZINC000019632713    0.4200
43     H43     3.8295   -7.0996   -4.9402 H        1 ZINC000019632713    0.0600
44     H44     3.0527   -5.8001   -5.8763 H        1 ZINC000019632713    0.1100
45     H45     4.7470   -5.6325   -5.3572 H        1 ZINC000019632713    0.1000
46     H46     3.3584   -1.8410   -6.9327 H        1 ZINC000019632713    0.0800
47     H47     2.9338    0.6862   -5.2743 H        1 ZINC000019632713    0.0700
48     H48     2.9354    0.5994   -7.0522 H        1 ZINC000019632713    0.0800
49     H49     1.6613   -0.2251   -6.1221 H        1 ZINC000019632713    0.0600
50     H50     5.2768   -0.2716   -7.0075 H        1 ZINC000019632713    0.0700
51     H51     5.2751   -0.1848   -5.2297 H        1 ZINC000019632713    0.0600
52     H52     5.6706   -1.7165   -6.0456 H        1 ZINC000019632713    0.0600
53     H53     4.9821   -4.5055   -1.6034 H        1 ZINC000019632713    0.1300
54     H54     6.9173   -3.4183   -0.5371 H        1 ZINC000019632713    0.1500
55     H55     6.9181   -0.9823   -0.1793 H        1 ZINC000019632713    0.1500
56     H56     3.0511   -0.7195   -1.9589 H        1 ZINC000019632713    0.1500
@<TRIPOS>BOND
1     1     2     1
2     1     32    1
3     1     33    1
4     1     34    1
5     2     3     1
6     3     4     1
7     3     35    1
8     3     36    1
9     4     5     1
10    4     37    1
11    4     38    1
12    5     6     1
13    6     7     2
14    6     8     1
15    8     21    1
16    8     9     2
17    9     10    1
18    9     11    1
19    10    39    1
20    10    40    1
21    10    41    1
22    11    12    1
23    11    42    1
24    12    13    1
25    12    14    2
26    13    43    1
27    13    44    1
28    13    45    1
29    14    15    1
30    14    21    1
31    15    16    2
32    15    17    1
33    17    18    1
34    18    19    1
35    18    20    1
36    18    46    1
37    19    47    1
38    19    48    1
39    19    49    1
40    20    50    1
41    20    51    1
42    20    52    1
43    21    22    1
44    21    23    1
45    23    31    ar
46    23    24    ar
47    24    25    ar
48    24    53    1
49    25    26    ar
50    25    54    1
51    26    27    ar
52    26    55    1
53    27    28    1
54    27    31    ar
55    28    29    2
56    28    30    2
57    31    56    1
@<TRIPOS>SUBSTRUCTURE
1   ZINC000019632713 1     RESIDUE    1   A     ZIN   1
