@<TRIPOS>MOLECULE
ZINC000003873160
52    55    1     0     0
SMALL
USER_CHARGES
@<TRIPOS>ATOM
1      C1      6.6410   -7.0444   -3.6996 C.3      1 ZINC000003873160   -0.1500
2      C2      6.4598   -5.5600   -4.0232 C.3      1 ZINC000003873160   -0.1200
3      C3      4.9838   -5.1833   -3.8803 C.3      1 ZINC000003873160   -0.1100
4      C4      4.8026   -3.6990   -4.2040 C.3      1 ZINC000003873160   -0.0400
5      C5      3.3572   -3.3165   -4.0154 C.2      1 ZINC000003873160    0.2300
6      N6      2.4101   -3.4624   -4.9016 N.2      1 ZINC000003873160   -0.4800
7      C7      1.2531   -3.0150   -4.3910 C.2      1 ZINC000003873160    0.0700
8      Cl8    -0.2831   -3.0053   -5.1996 Cl       1 ZINC000003873160   -0.0200
9      C9      1.4924   -2.5749   -3.1400 C.2      1 ZINC000003873160    0.0100
10     C10     0.4849   -1.9860   -2.1865 C.3      1 ZINC000003873160    0.1500
11     O11     0.4289   -0.5696   -2.3676 O.3      1 ZINC000003873160   -0.5300
12     N12     2.8267   -2.7717   -2.8997 N.pl3    1 ZINC000003873160   -0.4300
13     C13     3.5455   -2.4439   -1.6660 C.3      1 ZINC000003873160    0.1500
14     C14     3.9630   -0.9962   -1.6974 C.ar     1 ZINC000003873160   -0.1200
15     C15     5.1343   -0.6307   -2.3360 C.ar     1 ZINC000003873160   -0.1300
16     C16     5.5217    0.6934   -2.3680 C.ar     1 ZINC000003873160   -0.1100
17     C17     4.7298    1.6635   -1.7554 C.ar     1 ZINC000003873160   -0.0300
18     C18     5.1403    3.0877   -1.7868 C.ar     1 ZINC000003873160   -0.0400
19     C19     6.4336    3.4514   -1.4225 C.ar     1 ZINC000003873160   -0.1100
20     C20     6.8118    4.7788   -1.4536 C.ar     1 ZINC000003873160   -0.1400
21     C21     5.9112    5.7539   -1.8456 C.ar     1 ZINC000003873160   -0.1200
22     C22     4.6245    5.4099   -2.2100 C.ar     1 ZINC000003873160   -0.1100
23     C23     4.2287    4.0761   -2.1894 C.ar     1 ZINC000003873160    0.0600
24     C24     2.8475    3.7020   -2.5805 C.2      1 ZINC000003873160    0.0700
25     N25     2.3333    2.4768   -2.6025 N.2      1 ZINC000003873160   -0.3500
26     N26     1.1101    2.5757   -2.9979 N.pl3    1 ZINC000003873160   -0.1700
27     N27     0.8388    3.8136   -3.2240 N.2      1 ZINC000003873160   -0.2000
28     N28     1.8822    4.5276   -2.9714 N.2      1 ZINC000003873160   -0.3700
29     C29     3.5502    1.2892   -1.1137 C.ar     1 ZINC000003873160    0.0100
30     C30     3.1705   -0.0374   -1.0924 C.ar     1 ZINC000003873160   -0.0900
31     H31     6.3145   -7.2359   -2.6774 H        1 ZINC000003873160    0.0500
32     H32     6.0451   -7.6420   -4.3894 H        1 ZINC000003873160    0.0500
33     H33     7.6926   -7.3127   -3.8014 H        1 ZINC000003873160    0.0500
34     H34     7.0558   -4.9624   -3.3335 H        1 ZINC000003873160    0.0600
35     H35     6.7863   -5.3685   -5.0454 H        1 ZINC000003873160    0.0600
36     H36     4.3879   -5.7810   -4.5701 H        1 ZINC000003873160    0.0700
37     H37     4.6573   -5.3748   -2.8582 H        1 ZINC000003873160    0.0600
38     H38     5.4261   -3.1030   -3.5374 H        1 ZINC000003873160    0.0800
39     H39     5.0956   -3.5141   -5.2375 H        1 ZINC000003873160    0.1000
40     H40    -0.4968   -2.4166   -2.3836 H        1 ZINC000003873160    0.0600
41     H41     0.7807   -2.2098   -1.1615 H        1 ZINC000003873160    0.0500
42     H42    -0.2007   -0.1232   -1.7850 H        1 ZINC000003873160    0.3800
43     H43     2.8938   -2.6156   -0.8093 H        1 ZINC000003873160    0.0900
44     H44     4.4299   -3.0754   -1.5820 H        1 ZINC000003873160    0.1000
45     H45     5.7470   -1.3831   -2.8103 H        1 ZINC000003873160    0.1100
46     H46     6.4368    0.9776   -2.8663 H        1 ZINC000003873160    0.1100
47     H47     7.1410    2.6953   -1.1154 H        1 ZINC000003873160    0.1200
48     H48     7.8159    5.0579   -1.1701 H        1 ZINC000003873160    0.1200
49     H49     6.2164    6.7897   -1.8663 H        1 ZINC000003873160    0.1200
50     H50     3.9265    6.1757   -2.5145 H        1 ZINC000003873160    0.1300
51     H51     2.9330    2.0365   -0.6372 H        1 ZINC000003873160    0.1100
52     H52     2.2566   -0.3284   -0.5958 H        1 ZINC000003873160    0.1100
@<TRIPOS>BOND
1     1     2     1
2     1     31    1
3     1     32    1
4     1     33    1
5     2     3     1
6     2     34    1
7     2     35    1
8     3     4     1
9     3     36    1
10    3     37    1
11    4     5     1
12    4     38    1
13    4     39    1
14    5     12    1
15    5     6     2
16    6     7     1
17    7     8     1
18    7     9     2
19    9     10    1
20    9     12    1
21    10    11    1
22    10    40    1
23    10    41    1
24    11    42    1
25    12    13    1
26    13    14    1
27    13    43    1
28    13    44    1
29    14    30    ar
30    14    15    ar
31    15    16    ar
32    15    45    1
33    16    17    ar
34    16    46    1
35    17    18    1
36    17    29    ar
37    18    23    ar
38    18    19    ar
39    19    20    ar
40    19    47    1
41    20    21    ar
42    20    48    1
43    21    22    ar
44    21    49    1
45    22    23    ar
46    22    50    1
47    23    24    1
48    24    28    1
49    24    25    2
50    25    26    1
51    26    27    1
52    27    28    2
53    29    30    ar
54    29    51    1
55    30    52    1
@<TRIPOS>SUBSTRUCTURE
1   ZINC000003873160 1     RESIDUE    1   A     ZIN   1
