@<TRIPOS>MOLECULE
ZINC000012503156
18    18    1     0     0
SMALL
USER_CHARGES
@<TRIPOS>ATOM
1      C1     -0.0178    1.4608    0.0101 C.3      1 ZINC000012503156    0.0400
2      N2      0.0021   -0.0041    0.0020 N.pl3    1 ZINC000012503156   -0.4200
3      C3      0.0055   -0.6605   -1.1709 C.2      1 ZINC000012503156    0.1200
4      C4      0.0242   -2.0207   -1.2101 C.2      1 ZINC000012503156   -0.1900
5      C5      0.0402   -2.7515   -0.0225 C.2      1 ZINC000012503156   -0.0200
6      C6      0.0367   -2.0748    1.1850 C.2      1 ZINC000012503156   -0.1600
7      C7      0.0225   -0.6813    1.1818 C.2      1 ZINC000012503156    0.2900
8      C8      0.0190    0.0544    2.4493 C.2      1 ZINC000012503156   -0.2900
9      N9      0.0292   -0.5931    3.5770 N.2      1 ZINC000012503156   -0.2800
10     O10     0.0263    0.0183    4.6304 O.2      1 ZINC000012503156   -0.1700
11     H11     1.0048    1.8381    0.0023 H        1 ZINC000012503156    0.1000
12     H12    -0.5450    1.8219   -0.8730 H        1 ZINC000012503156    0.1000
13     H13    -0.5280    1.8123    0.9069 H        1 ZINC000012503156    0.1100
14     H14    -0.0072   -0.1010   -2.0946 H        1 ZINC000012503156    0.1800
15     H15     0.0264   -2.5339   -2.1604 H        1 ZINC000012503156    0.1600
16     H16     0.0548   -3.8312   -0.0445 H        1 ZINC000012503156    0.1500
17     H17     0.0488   -2.6197    2.1174 H        1 ZINC000012503156    0.1700
18     H18     0.0080    1.1344    2.4468 H        1 ZINC000012503156    0.1000
@<TRIPOS>BOND
1     1     2     1
2     1     11    1
3     1     12    1
4     1     13    1
5     2     7     1
6     2     3     1
7     3     4     2
8     3     14    1
9     4     5     1
10    4     15    1
11    5     6     2
12    5     16    1
13    6     7     1
14    6     17    1
15    7     8     2
16    8     9     1
17    8     18    1
18    9     10    2
@<TRIPOS>SUBSTRUCTURE
1   ZINC000012503156 1     RESIDUE    1   A     ZIN   1
