@<TRIPOS>MOLECULE
ZINC000003936683
53    57    1     0     0
SMALL
USER_CHARGES
@<TRIPOS>ATOM
1      O1     -0.2112   -0.3774   -0.0753 O.2      1 ZINC000003936683   -0.5700
2      C2     -0.0354    0.8215    0.0150 C.2      1 ZINC000003936683    0.6600
3      O3      1.2158    1.3171    0.0560 O.3      1 ZINC000003936683   -0.3600
4      C4      2.3062    0.3608   -0.0123 C.3      1 ZINC000003936683    0.0800
5      H5      1.9917   -0.5841    0.4310 H        1 ZINC000003936683    0.0900
6      C6      2.7005    0.1355   -1.4748 C.3      1 ZINC000003936683    0.0400
7      N7      4.1060    0.5180   -1.6650 N.3      1 ZINC000003936683   -0.5300
8      C8      4.3084    1.9448   -1.3779 C.3      1 ZINC000003936683    0.0500
9      C9      3.9591    2.2221    0.0870 C.3      1 ZINC000003936683   -0.1500
10     C10     3.5186    0.9083    0.7514 C.3      1 ZINC000003936683   -0.0900
11     C11     4.6650   -0.1047    0.6400 C.3      1 ZINC000003936683   -0.1500
12     C12     4.9957   -0.3150   -0.8441 C.3      1 ZINC000003936683    0.0500
13     N13    -1.0927    1.6555    0.0685 N.am     1 ZINC000003936683   -0.5900
14     C14    -0.9135    3.1132    0.1718 C.3      1 ZINC000003936683    0.1000
15     C15    -1.4772    3.7471   -1.0990 C.3      1 ZINC000003936683   -0.1000
16     C16    -2.8397    3.1900   -1.4169 C.ar     1 ZINC000003936683   -0.0700
17     C17    -3.6596    3.9330   -2.2572 C.ar     1 ZINC000003936683   -0.1200
18     C18    -4.9160    3.4754   -2.5963 C.ar     1 ZINC000003936683   -0.1100
19     C19    -5.3651    2.2667   -2.0984 C.ar     1 ZINC000003936683   -0.1200
20     C20    -4.5543    1.5282   -1.2608 C.ar     1 ZINC000003936683   -0.1000
21     C21    -3.2923    1.9904   -0.9142 C.ar     1 ZINC000003936683   -0.0900
22     C22    -2.4680    1.1478    0.0200 C.3      1 ZINC000003936683    0.2400
23     H23    -2.4617    0.1162   -0.3321 H        1 ZINC000003936683    0.1200
24     C24    -3.0646    1.2021    1.4028 C.ar     1 ZINC000003936683   -0.1000
25     C25    -3.2795    2.4225    2.0154 C.ar     1 ZINC000003936683   -0.1000
26     C26    -3.8267    2.4723    3.2838 C.ar     1 ZINC000003936683   -0.1200
27     C27    -4.1595    1.3018    3.9395 C.ar     1 ZINC000003936683   -0.1100
28     C28    -3.9454    0.0814    3.3265 C.ar     1 ZINC000003936683   -0.1200
29     C29    -3.4021    0.0317    2.0564 C.ar     1 ZINC000003936683   -0.1000
30     H30     2.5726   -0.9170   -1.7279 H        1 ZINC000003936683    0.0900
31     H31     2.0673    0.7445   -2.1200 H        1 ZINC000003936683    0.0900
32     H32     5.3504    2.2082   -1.5595 H        1 ZINC000003936683    0.0800
33     H33     3.6643    2.5408   -2.0244 H        1 ZINC000003936683    0.0800
34     H34     4.8348    2.6158    0.6030 H        1 ZINC000003936683    0.0700
35     H35     3.1465    2.9467    0.1379 H        1 ZINC000003936683    0.0700
36     H36     3.2589    1.0848    1.7952 H        1 ZINC000003936683    0.0900
37     H37     5.5439    0.2800    1.1574 H        1 ZINC000003936683    0.0800
38     H38     4.3608   -1.0511    1.0871 H        1 ZINC000003936683    0.0700
39     H39     4.8515   -1.3637   -1.1038 H        1 ZINC000003936683    0.0800
40     H40     6.0323   -0.0333   -1.0292 H        1 ZINC000003936683    0.0800
41     H41    -1.4513    3.4901    1.0418 H        1 ZINC000003936683    0.0800
42     H42     0.1469    3.3489    0.2624 H        1 ZINC000003936683    0.1000
43     H43    -1.5546    4.8251   -0.9579 H        1 ZINC000003936683    0.0900
44     H44    -0.8032    3.5427   -1.9309 H        1 ZINC000003936683    0.0800
45     H45    -3.3103    4.8772   -2.6480 H        1 ZINC000003936683    0.1200
46     H46    -5.5473    4.0602   -3.2489 H        1 ZINC000003936683    0.1200
47     H47    -6.3465    1.9020   -2.3634 H        1 ZINC000003936683    0.1300
48     H48    -4.9044    0.5834   -0.8720 H        1 ZINC000003936683    0.1200
49     H49    -3.0195    3.3371    1.5031 H        1 ZINC000003936683    0.1200
50     H50    -3.9939    3.4258    3.7627 H        1 ZINC000003936683    0.1200
51     H51    -4.5864    1.3407    4.9308 H        1 ZINC000003936683    0.1200
52     H52    -4.2051   -0.8332    3.8389 H        1 ZINC000003936683    0.1200
53     H53    -3.2349   -0.9218    1.5775 H        1 ZINC000003936683    0.1300
@<TRIPOS>BOND
1     1     2     2
2     2     3     1
3     2     13    am
4     3     4     1
5     4     5     1
6     4     10    1
7     4     6     1
8     6     7     1
9     6     30    1
10    6     31    1
11    7     12    1
12    7     8     1
13    8     9     1
14    8     32    1
15    8     33    1
16    9     10    1
17    9     34    1
18    9     35    1
19    10    11    1
20    10    36    1
21    11    12    1
22    11    37    1
23    11    38    1
24    12    39    1
25    12    40    1
26    13    22    1
27    13    14    1
28    14    15    1
29    14    41    1
30    14    42    1
31    15    16    1
32    15    43    1
33    15    44    1
34    16    21    ar
35    16    17    ar
36    17    18    ar
37    17    45    1
38    18    19    ar
39    18    46    1
40    19    20    ar
41    19    47    1
42    20    21    ar
43    20    48    1
44    21    22    1
45    22    23    1
46    22    24    1
47    24    29    ar
48    24    25    ar
49    25    26    ar
50    25    49    1
51    26    27    ar
52    26    50    1
53    27    28    ar
54    27    51    1
55    28    29    ar
56    28    52    1
57    29    53    1
@<TRIPOS>SUBSTRUCTURE
1   ZINC000003936683 1     RESIDUE    1   A     ZIN   1
