@<TRIPOS>MOLECULE
ZINC000000001644
23   23    0    0    0
SMALL
USER_CHARGES
NO_NAME
@<TRIPOS>ATOM
1 N1       -0.0204     1.6518     0.0111 N.am   1 <0>      -1.2400
2 S2        0.0021    -0.0041     0.0020 S.o2   1 <0>       2.7000
3 O3        1.3604    -0.3860    -0.1664 O.2    1 <0>      -0.9500
4 O4       -0.7920    -0.4222     1.1038 O.2    1 <0>      -0.9400
5 C5       -0.8462    -0.5292    -1.4503 C.ar   1 <0>      -0.6500
6 C6       -2.2107    -0.7471    -1.4131 C.ar   1 <0>      -0.0200
7 C7       -2.8762    -1.1591    -2.5525 C.ar   1 <0>      -0.1100
8 C8       -2.1772    -1.3528    -3.7293 C.ar   1 <0>      -0.1200
9 C9       -2.9026    -1.8024    -4.9713 C.3    1 <0>       0.0400
10 N10      -3.3598    -0.6266    -5.7240 N.4    1 <0>      -0.6400
11 H11      -3.9840    -0.0810    -5.1490 H      1 <0>       0.4400
12 H12      -2.5640    -0.0637    -5.9845 H      1 <0>       0.4400
13 H13      -3.8455    -0.9277    -6.5556 H      1 <0>       0.4400
14 C14      -0.8129    -1.1336    -3.7669 C.ar   1 <0>      -0.1100
15 C15      -0.1480    -0.7179    -2.6284 C.ar   1 <0>      -0.0100
16 H16       0.8130     2.1481     0.0058 H      1 <0>       0.4300
17 H17      -0.8669     2.1253     0.0177 H      1 <0>       0.4200
18 H18      -2.7569    -0.5958    -0.4937 H      1 <0>       0.1600
19 H19      -3.9422    -1.3300    -2.5233 H      1 <0>       0.1400
20 H20      -2.2283    -2.3919    -5.5926 H      1 <0>       0.1500
21 H21      -3.7623    -2.4105    -4.6899 H      1 <0>       0.1500
22 H22      -0.2668    -1.2845    -4.6863 H      1 <0>       0.1400
23 H23       0.9179    -0.5466    -2.6578 H      1 <0>       0.1600
@<TRIPOS>BOND
1    1    2 am
2    1   16 1
3    1   17 1
4    2    3 2
5    2    4 2
6    2    5 1
7    5   15 ar
8    5    6 ar
9    6    7 ar
10    6   18 1
11    7    8 ar
12    7   19 1
13    8    9 1
14    8   14 ar
15    9   10 1
16    9   20 1
17    9   21 1
18   10   11 1
19   10   12 1
20   10   13 1
21   14   15 ar
22   14   22 1
23   15   23 1
