@<TRIPOS>MOLECULE
ZINC000000968274
54   56    0    0    0
SMALL
USER_CHARGES
NO_NAME
@<TRIPOS>ATOM
1 O1       -0.0197     1.6665     0.1171 O.3    1 <0>      -0.5300
2 C2       -0.0637     0.2387     0.0796 C.3    1 <0>       0.1900
3 C3        0.7079    -0.3269     1.2737 C.3    1 <0>      -0.1800
4 C4        2.1740     0.1012     1.1825 C.3    1 <0>      -0.0200
5 N5        2.8858    -0.3286     2.3936 N.4    1 <0>      -0.3800
6 H6        2.4107     0.0318     3.2075 H      1 <0>       0.4200
7 C7        4.2592     0.1883     2.3615 C.3    1 <0>      -0.0100
8 C8        4.9802    -0.1879     3.6577 C.3    1 <0>      -0.1500
9 C9        5.0102    -1.7129     3.7946 C.3    1 <0>      -0.1400
10 C10       3.5758    -2.2476     3.7521 C.3    1 <0>      -0.1500
11 C11       2.9084    -1.7951     2.4515 C.3    1 <0>      -0.0100
12 C12       0.5635    -0.2498    -1.2006 C.ar   1 <0>      -0.1200
13 C13       0.1274    -1.4273    -1.7786 C.ar   1 <0>      -0.1100
14 C14       0.7027    -1.8754    -2.9530 C.ar   1 <0>      -0.1100
15 C15       1.7138    -1.1456    -3.5496 C.ar   1 <0>      -0.1100
16 C16       2.1493     0.0324    -2.9721 C.ar   1 <0>      -0.1100
17 C17       1.5711     0.4826    -1.8000 C.ar   1 <0>      -0.1200
18 C18      -1.5191    -0.2287     0.1453 C.3    1 <0>      -0.0700
19 C19      -2.1376     0.2142     1.4728 C.3    1 <0>      -0.1100
20 C20      -3.5930    -0.2531     1.5384 C.3    1 <0>      -0.1200
21 C21      -4.3790     0.3624     0.3790 C.3    1 <0>      -0.1200
22 C22      -3.7605    -0.0805    -0.9485 C.3    1 <0>      -0.1200
23 C23      -2.3051     0.3868    -1.0141 C.3    1 <0>      -0.1100
24 H24       0.8741     2.0336     0.0791 H      1 <0>       0.3700
25 H25       0.2752     0.0535     2.1990 H      1 <0>       0.1000
26 H26       0.6458    -1.4151     1.2640 H      1 <0>       0.1000
27 H27       2.6334    -0.3598     0.3082 H      1 <0>       0.1300
28 H28       2.2309     1.1860     1.0934 H      1 <0>       0.1300
29 H29       4.7897    -0.2433     1.5128 H      1 <0>       0.1300
30 H30       4.2362     1.2734     2.2608 H      1 <0>       0.1300
31 H31       6.0003     0.1953     3.6312 H      1 <0>       0.1100
32 H32       4.4506     0.2435     4.5072 H      1 <0>       0.0900
33 H33       5.5834    -2.1414     2.9726 H      1 <0>       0.0800
34 H34       5.4725    -1.9846     4.7436 H      1 <0>       0.0900
35 H35       3.5920    -3.3368     3.7931 H      1 <0>       0.1100
36 H36       3.0171    -1.8590     4.6036 H      1 <0>       0.0900
37 H37       1.8869    -2.1739     2.4170 H      1 <0>       0.1300
38 H38       3.4684    -2.1850     1.6015 H      1 <0>       0.1300
39 H39      -0.6626    -1.9975    -1.3125 H      1 <0>       0.1300
40 H40       0.3624    -2.7957    -3.4042 H      1 <0>       0.1300
41 H41       2.1638    -1.4960    -4.4668 H      1 <0>       0.1300
42 H42       2.9395     0.6023    -3.4381 H      1 <0>       0.1300
43 H43       1.9113     1.4030    -1.3489 H      1 <0>       0.1200
44 H44      -1.5553    -1.3156     0.0723 H      1 <0>       0.0900
45 H45      -1.5776    -0.2243     2.2987 H      1 <0>       0.0600
46 H46      -2.1013     1.3012     1.5458 H      1 <0>       0.0700
47 H47      -3.6292    -1.3401     1.4654 H      1 <0>       0.0600
48 H48      -4.0336     0.0624     2.4841 H      1 <0>       0.0700
49 H49      -5.4159     0.0294     0.4258 H      1 <0>       0.0600
50 H50      -4.3428     1.4493     0.4520 H      1 <0>       0.0600
51 H51      -3.7968    -1.1675    -1.0215 H      1 <0>       0.0600
52 H52      -4.3205     0.3580    -1.7744 H      1 <0>       0.0700
53 H53      -2.2689     1.4738    -0.9411 H      1 <0>       0.0700
54 H54      -1.8645     0.0713    -1.9598 H      1 <0>       0.0600
@<TRIPOS>BOND
1    1    2 1
2    1   24 1
3    2    3 1
4    2   12 1
5    2   18 1
6    3    4 1
7    3   25 1
8    3   26 1
9    4    5 1
10    4   27 1
11    4   28 1
12    5    6 1
13    5   11 1
14    5    7 1
15    7    8 1
16    7   29 1
17    7   30 1
18    8    9 1
19    8   31 1
20    8   32 1
21    9   10 1
22    9   33 1
23    9   34 1
24   10   11 1
25   10   35 1
26   10   36 1
27   11   37 1
28   11   38 1
29   12   17 ar
30   12   13 ar
31   13   14 ar
32   13   39 1
33   14   15 ar
34   14   40 1
35   15   16 ar
36   15   41 1
37   16   17 ar
38   16   42 1
39   17   43 1
40   18   23 1
41   18   19 1
42   18   44 1
43   19   20 1
44   19   45 1
45   19   46 1
46   20   21 1
47   20   47 1
48   20   48 1
49   21   22 1
50   21   49 1
51   21   50 1
52   22   23 1
53   22   51 1
54   22   52 1
55   23   53 1
56   23   54 1
