@<TRIPOS>MOLECULE
ZINC000001530695
51   54    0    0    0
SMALL
USER_CHARGES
NO_NAME
@<TRIPOS>ATOM
1 C1        0.1573     2.0109     0.1847 C.3    1 <0>      -0.1500
2 S2        0.1296     0.1972     0.1893 S.3    1 <0>      -0.1100
3 C3        1.0332    -0.2168    -1.2656 C.ar   1 <0>      -0.0400
4 C4        1.5554     0.7887    -2.0680 C.ar   1 <0>      -0.1500
5 C5        2.2615     0.4611    -3.2104 C.ar   1 <0>      -0.0400
6 C6        2.4516    -0.8689    -3.5597 C.ar   1 <0>      -0.1600
7 S7        3.3469    -1.2539    -5.0260 S.3    1 <0>       0.0200
8 C8        2.9059    -2.9275    -5.3473 C.ar   1 <0>      -0.1500
9 C9        3.1268    -3.4586    -6.6110 C.ar   1 <0>      -0.0600
10 C10       2.7859    -4.7709    -6.8834 C.ar   1 <0>      -0.1400
11 C11       2.2234    -5.5570    -5.8963 C.ar   1 <0>      -0.0800
12 C12       2.0005    -5.0356    -4.6356 C.ar   1 <0>      -0.1600
13 C13       2.3415    -3.7179    -4.3503 C.ar   1 <0>       0.1900
14 N14       2.1102    -3.2281    -3.0671 N.pl3  1 <0>      -0.5600
15 C15       2.0463    -4.1956    -1.9689 C.3    1 <0>       0.1100
16 C16       0.6085    -4.6947    -1.8119 C.3    1 <0>      -0.1500
17 C17       0.5329    -5.6707    -0.6361 C.3    1 <0>       0.0900
18 H18       0.9080    -5.1843     0.2643 H      1 <0>       0.0400
19 C19       1.3853    -6.9044    -0.9419 C.3    1 <0>      -0.1200
20 C20       1.2906    -7.8870     0.2286 C.3    1 <0>      -0.1200
21 C21      -0.1776    -8.2575     0.4563 C.3    1 <0>      -0.1200
22 C22      -0.9846    -6.9846     0.7215 C.3    1 <0>       0.0600
23 N23      -0.8624    -6.0780    -0.4272 N.3    1 <0>      -0.5400
24 C24      -1.7343    -4.9064    -0.2683 C.3    1 <0>       0.0200
25 C25       1.9347    -1.8815    -2.7565 C.ar   1 <0>       0.2200
26 C26       1.2280    -1.5484    -1.6064 C.ar   1 <0>      -0.1400
27 H27       1.1898     2.3586     0.2197 H      1 <0>       0.0900
28 H28      -0.3195     2.3793    -0.7236 H      1 <0>       0.0900
29 H29      -0.3817     2.3848     1.0553 H      1 <0>       0.1100
30 H30       1.4099     1.8248    -1.8004 H      1 <0>       0.1300
31 H31       2.6669     1.2438    -3.8344 H      1 <0>       0.1400
32 H32       3.5658    -2.8449    -7.3837 H      1 <0>       0.1300
33 H33       2.9596    -5.1811    -7.8673 H      1 <0>       0.1300
34 H34       1.9569    -6.5814    -6.1102 H      1 <0>       0.1300
35 H35       1.5596    -5.6547    -3.8683 H      1 <0>       0.1400
36 H36       2.7015    -5.0385    -2.1886 H      1 <0>       0.0900
37 H37       2.3677    -3.7170    -1.0438 H      1 <0>       0.0800
38 H38      -0.0516    -3.8479    -1.6242 H      1 <0>       0.0800
39 H39       0.2982    -5.2017    -2.7255 H      1 <0>       0.0800
40 H40       1.0192    -7.3837    -1.8499 H      1 <0>       0.0700
41 H41       2.4236    -6.6038    -1.0816 H      1 <0>       0.0700
42 H42       1.8614    -8.7862    -0.0035 H      1 <0>       0.0700
43 H43       1.6926    -7.4215     1.1285 H      1 <0>       0.0600
44 H44      -0.5682    -8.7580    -0.4297 H      1 <0>       0.0700
45 H45      -0.2558    -8.9236     1.3155 H      1 <0>       0.0700
46 H46      -2.0329    -7.2435     0.8699 H      1 <0>       0.0800
47 H47      -0.6023    -6.4919     1.6155 H      1 <0>       0.0300
48 H48      -1.4183    -4.3340     0.6038 H      1 <0>       0.0300
49 H49      -1.6670    -4.2801    -1.1579 H      1 <0>       0.0700
50 H50      -2.7644    -5.2359    -0.1330 H      1 <0>       0.0700
51 H51       0.8256    -2.3288    -0.9776 H      1 <0>       0.1400
@<TRIPOS>BOND
1    1    2 1
2    1   27 1
3    1   28 1
4    1   29 1
5    2    3 1
6    3   26 ar
7    3    4 ar
8    4    5 ar
9    4   30 1
10    5    6 ar
11    5   31 1
12    6   25 ar
13    6    7 1
14    7    8 1
15    8   13 ar
16    8    9 ar
17    9   10 ar
18    9   32 1
19   10   11 ar
20   10   33 1
21   11   12 ar
22   11   34 1
23   12   13 ar
24   12   35 1
25   13   14 1
26   14   15 1
27   14   25 1
28   15   16 1
29   15   36 1
30   15   37 1
31   16   17 1
32   16   38 1
33   16   39 1
34   17   18 1
35   17   23 1
36   17   19 1
37   19   20 1
38   19   40 1
39   19   41 1
40   20   21 1
41   20   42 1
42   20   43 1
43   21   22 1
44   21   44 1
45   21   45 1
46   22   23 1
47   22   46 1
48   22   47 1
49   23   24 1
50   24   48 1
51   24   49 1
52   24   50 1
53   25   26 ar
54   26   51 1
