@<TRIPOS>MOLECULE
ZINC000003830264
43    44    1     0     0
SMALL
USER_CHARGES
@<TRIPOS>ATOM
1      C1      4.4674    0.1486   -3.3674 C.3      1 ZINC000003830264   -0.1600
2      C2      3.2512    0.0933   -4.2941 C.3      1 ZINC000003830264    0.1300
3      H3      3.3979   -0.5881   -5.1321 H        1 ZINC000003830264    0.1000
4      C4      1.9399   -0.1505   -3.5469 C.3      1 ZINC000003830264    0.0900
5      H5      2.0445   -0.2153   -2.4639 H        1 ZINC000003830264    0.1500
6      N6      1.1084   -1.2140   -4.1159 N.am     1 ZINC000003830264   -0.6900
7      C7      0.2275   -1.8710   -3.3356 C.2      1 ZINC000003830264    0.5300
8      O8      0.1897   -1.6486   -2.1416 O.2      1 ZINC000003830264   -0.4800
9      C9     -0.6950   -2.8645   -3.9337 C.2      1 ZINC000003830264    0.1400
10     N10    -1.6164   -3.4220   -3.2006 N.2      1 ZINC000003830264   -0.2700
11     O11    -1.8096   -2.9985   -1.8632 O.3      1 ZINC000003830264   -0.1200
12     C12    -2.8522   -3.6951   -1.1778 C.3      1 ZINC000003830264    0.0300
13     C13    -4.1766   -3.4836   -1.9141 C.3      1 ZINC000003830264   -0.1500
14     C14    -2.5251   -5.1892   -1.1355 C.3      1 ZINC000003830264   -0.1400
15     C15    -2.9693   -3.1665    0.2286 C.2      1 ZINC000003830264    0.5200
16     O16    -2.2286   -2.2758    0.6087 O.co2    1 ZINC000003830264   -0.6600
17     O17    -3.8048   -3.6296    0.9862 O.co2    1 ZINC000003830264   -0.6900
18     C18    -0.5697   -3.2232   -5.3628 C.2      1 ZINC000003830264    0.1600
19     C19    -1.3143   -4.1912   -5.9325 C.2      1 ZINC000003830264   -0.2300
20     S20    -0.8654   -4.3054   -7.6323 S.3      1 ZINC000003830264    0.0600
21     C21     0.3084   -3.0114   -7.4135 C.2      1 ZINC000003830264    0.3600
22     N22     1.1275   -2.4996   -8.4058 N.pl3    1 ZINC000003830264   -0.8100
23     N23     0.2842   -2.6082   -6.1818 N.2      1 ZINC000003830264   -0.5400
24     C24     1.6221    1.2293   -4.0591 C.2      1 ZINC000003830264    0.5300
25     O25     0.6446    1.9353   -3.9292 O.2      1 ZINC000003830264   -0.4800
26     N26     2.7847    1.4176   -4.7071 N.am     1 ZINC000003830264   -0.9600
27     S27     3.4289    2.6483   -5.6086 S.o2     1 ZINC000003830264    2.7700
28     O28     4.3190    2.0341   -6.5815 O.co2    1 ZINC000003830264   -1.0700
29     O29     2.3129    3.3311   -6.2444 O.co2    1 ZINC000003830264   -1.0600
30     O30     4.1444    3.5148   -4.6849 O.co2    1 ZINC000003830264   -1.0700
31     H31     4.3420    0.9610   -2.6515 H        1 ZINC000003830264    0.0700
32     H32     4.5596   -0.7964   -2.8321 H        1 ZINC000003830264    0.0800
33     H33     5.3670    0.3207   -3.9584 H        1 ZINC000003830264    0.0700
34     H34     1.1918   -1.4453   -5.0542 H        1 ZINC000003830264    0.4200
35     H35    -4.0919   -3.8660   -2.9313 H        1 ZINC000003830264    0.0500
36     H36    -4.9718   -4.0150   -1.3913 H        1 ZINC000003830264    0.0700
37     H37    -4.4096   -2.4193   -1.9443 H        1 ZINC000003830264    0.0500
38     H38    -1.5816   -5.3399   -0.6110 H        1 ZINC000003830264    0.0500
39     H39    -3.3204   -5.7205   -0.6127 H        1 ZINC000003830264    0.0700
40     H40    -2.4404   -5.5715   -2.1527 H        1 ZINC000003830264    0.0500
41     H41    -2.0581   -4.7939   -5.4326 H        1 ZINC000003830264    0.1900
42     H42     1.0800   -2.8570   -9.3063 H        1 ZINC000003830264    0.4200
43     H43     1.7488   -1.7835   -8.2004 H        1 ZINC000003830264    0.4200
@<TRIPOS>BOND
1     1     2     1
2     1     31    1
3     1     32    1
4     1     33    1
5     2     3     1
6     2     26    1
7     2     4     1
8     4     5     1
9     4     6     1
10    4     24    1
11    6     7     am
12    6     34    1
13    7     8     2
14    7     9     1
15    9     10    2
16    9     18    1
17    10    11    1
18    11    12    1
19    12    13    1
20    12    14    1
21    12    15    1
22    13    35    1
23    13    36    1
24    13    37    1
25    14    38    1
26    14    39    1
27    14    40    1
28    15    16    ar
29    15    17    ar
30    18    23    1
31    18    19    2
32    19    20    1
33    19    41    1
34    20    21    1
35    21    22    1
36    21    23    2
37    22    42    1
38    22    43    1
39    24    25    2
40    24    26    am
41    26    27    am
42    27    28    ar
43    27    29    ar
44    27    30    ar
@<TRIPOS>SUBSTRUCTURE
1   ZINC000003830264 1     RESIDUE    1   A     ZIN   1
