@<TRIPOS>MOLECULE
ZINC000000968263
43   45    0    0    0
SMALL
USER_CHARGES
NO_NAME
@<TRIPOS>ATOM
1 C1       -0.0178     1.4648     0.0101 C.3    1 <0>      -0.0500
2 N2        0.0021    -0.0041     0.0020 N.4    1 <0>      -0.3900
3 H3        0.4744    -0.3295    -0.8281 H      1 <0>       0.4300
4 C4        0.7126    -0.4907     1.1921 C.3    1 <0>      -0.0500
5 C5       -1.3761    -0.5125     0.0124 C.3    1 <0>      -0.0100
6 C6       -2.0780    -0.1101    -1.2861 C.3    1 <0>      -0.1200
7 C7       -3.4918    -0.6317    -1.2754 C.2    1 <0>      -0.1600
8 C8       -4.5191     0.2107    -1.4629 C.2    1 <0>       0.0000
9 C9       -4.2856     1.6562    -1.6882 C.ar   1 <0>      -0.0500
10 C10      -3.5117     2.0763    -2.7652 C.ar   1 <0>      -0.1100
11 C11      -3.3325     3.4250    -3.0014 C.ar   1 <0>      -0.1200
12 C12      -3.9244     4.3638    -2.1724 C.ar   1 <0>      -0.1100
13 C13      -4.6788     3.9665    -1.0901 C.ar   1 <0>      -0.1000
14 C14      -4.8535     2.6039    -0.8177 C.ar   1 <0>      -0.0400
15 C15      -5.5785     2.1945     0.3814 C.2    1 <0>      -0.1100
16 C16      -6.4236     1.1929     0.5049 C.2    1 <0>      -0.0900
17 C17      -6.8402     0.2488    -0.5276 C.ar   1 <0>      -0.0500
18 C18      -8.1803    -0.1517    -0.6009 C.ar   1 <0>      -0.1000
19 C19      -8.5746    -1.0776    -1.5420 C.ar   1 <0>      -0.1100
20 C20      -7.6542    -1.6249    -2.4209 C.ar   1 <0>      -0.1100
21 C21      -6.3313    -1.2311    -2.3777 C.ar   1 <0>      -0.1000
22 C22      -5.9167    -0.2812    -1.4561 C.ar   1 <0>      -0.0500
23 H23       1.0047     1.8421     0.0024 H      1 <0>       0.1200
24 H24      -0.5450     1.8259    -0.8730 H      1 <0>       0.1200
25 H25      -0.5280     1.8163     0.9069 H      1 <0>       0.1200
26 H26       0.2024    -0.1392     2.0889 H      1 <0>       0.1200
27 H27       0.7273    -1.5806     1.1861 H      1 <0>       0.1200
28 H28       1.7352    -0.1134     1.1844 H      1 <0>       0.1200
29 H29      -1.3618    -1.5992     0.0960 H      1 <0>       0.1300
30 H30      -1.9129    -0.0898     0.8617 H      1 <0>       0.1300
31 H31      -2.0923     0.9766    -1.3697 H      1 <0>       0.1000
32 H32      -1.5412    -0.5328    -2.1354 H      1 <0>       0.1000
33 H33      -3.6781    -1.6837    -1.1169 H      1 <0>       0.1300
34 H34      -3.0511     1.3480    -3.4161 H      1 <0>       0.1300
35 H35      -2.7281     3.7491    -3.8357 H      1 <0>       0.1300
36 H36      -3.7930     5.4163    -2.3759 H      1 <0>       0.1300
37 H37      -5.1363     4.7070    -0.4507 H      1 <0>       0.1300
38 H38      -5.4012     2.7818     1.2703 H      1 <0>       0.1200
39 H39      -6.8589     1.0532     1.4833 H      1 <0>       0.1200
40 H40      -8.9058     0.2656     0.0817 H      1 <0>       0.1300
41 H41      -9.6103    -1.3790    -1.5952 H      1 <0>       0.1300
42 H42      -7.9725    -2.3627    -3.1424 H      1 <0>       0.1300
43 H43      -5.6167    -1.6619    -3.0634 H      1 <0>       0.1300
@<TRIPOS>BOND
1    1    2 1
2    1   23 1
3    1   24 1
4    1   25 1
5    2    3 1
6    2    4 1
7    2    5 1
8    4   26 1
9    4   27 1
10    4   28 1
11    5    6 1
12    5   29 1
13    5   30 1
14    6    7 1
15    6   31 1
16    6   32 1
17    7    8 2
18    7   33 1
19    8   22 1
20    8    9 1
21    9   14 ar
22    9   10 ar
23   10   11 ar
24   10   34 1
25   11   12 ar
26   11   35 1
27   12   13 ar
28   12   36 1
29   13   14 ar
30   13   37 1
31   14   15 1
32   15   16 2
33   15   38 1
34   16   17 1
35   16   39 1
36   17   22 ar
37   17   18 ar
38   18   19 ar
39   18   40 1
40   19   20 ar
41   19   41 1
42   20   21 ar
43   20   42 1
44   21   22 ar
45   21   43 1
