@<TRIPOS>MOLECULE
ZINC000004658553
13    12    1     0     0
SMALL
USER_CHARGES
@<TRIPOS>ATOM
1      C1     -0.0187    1.5258    0.0104 C.3      1 ZINC000004658553   -0.1600
2      C2      0.0021   -0.0041    0.0020 C.3      1 ZINC000004658553   -0.0500
3      H3     -1.0205   -0.3814    0.0098 H        1 ZINC000004658553    0.1300
4      N4      0.7126   -0.4907    1.1921 N.4      1 ZINC000004658553   -0.6100
5      H5      1.6592   -0.1414    1.1850 H        1 ZINC000004658553    0.4300
6      H6      0.2403   -0.1653    2.0223 H        1 ZINC000004658553    0.4200
7      H7      0.7262   -1.4996    1.1866 H        1 ZINC000004658553    0.4300
8      C8      0.7074   -0.4901   -1.2379 C.2      1 ZINC000004658553    0.4900
9      O9      1.9121   -0.6771   -1.2202 O.co2    1 ZINC000004658553   -0.6700
10     O10     0.0735   -0.6963   -2.2587 O.co2    1 ZINC000004658553   -0.6400
11     H11     1.0039    1.9031    0.0027 H        1 ZINC000004658553    0.0800
12     H12    -0.5459    1.8868   -0.8726 H        1 ZINC000004658553    0.1000
13     H13    -0.5289    1.8773    0.9072 H        1 ZINC000004658553    0.0700
@<TRIPOS>BOND
1     1     2     1
2     1     11    1
3     1     12    1
4     1     13    1
5     2     3     1
6     2     4     1
7     2     8     1
8     4     5     1
9     4     6     1
10    4     7     1
11    8     9     ar
12    8     10    ar
@<TRIPOS>SUBSTRUCTURE
1   ZINC000004658553 1     RESIDUE    1   A     ZIN   1
