@<TRIPOS>MOLECULE
ZINC000033943508
49    49    1     0     0
SMALL
USER_CHARGES
@<TRIPOS>ATOM
1      C1     -1.1072    0.4695   -1.1355 C.3      1 ZINC000033943508   -0.1100
2      C2     -0.4984   -0.8749   -0.8305 C.2      1 ZINC000033943508   -0.1500
3      C3     -0.2233   -1.2364    0.4999 C.2      1 ZINC000033943508   -0.0800
4      C4     -0.5064   -0.3735    1.5109 C.2      1 ZINC000033943508   -0.1500
5      C5     -0.3443   -0.7828    2.8584 C.2      1 ZINC000033943508   -0.0800
6      C6     -1.0098   -1.8487    3.2711 C.2      1 ZINC000033943508   -0.1200
7      C7     -1.8898   -2.5653    2.2796 C.3      1 ZINC000033943508   -0.1200
8      C8     -0.9375   -2.3851    4.6711 C.3      1 ZINC000033943508   -0.0800
9      C9      0.2885   -1.8180    5.3897 C.3      1 ZINC000033943508   -0.1200
10     C10     0.2984   -0.2952    5.2088 C.3      1 ZINC000033943508   -0.1100
11     C11     0.5774    0.0143    3.7348 C.3      1 ZINC000033943508   -0.0200
12     C12     2.0306   -0.3366    3.4092 C.3      1 ZINC000033943508   -0.1400
13     C13     0.3486    1.5050    3.4774 C.3      1 ZINC000033943508   -0.1400
14     C14    -0.2141   -1.7416   -1.8459 C.2      1 ZINC000033943508   -0.0600
15     C15     0.3522   -2.9922   -1.5622 C.2      1 ZINC000033943508   -0.2000
16     C16     0.6389   -3.8663   -2.5864 C.2      1 ZINC000033943508   -0.0600
17     C17     1.2047   -5.1158   -2.3029 C.2      1 ZINC000033943508   -0.0900
18     C18     1.4014   -5.5468   -0.8723 C.3      1 ZINC000033943508   -0.1200
19     C19     1.5811   -5.9501   -3.3310 C.2      1 ZINC000033943508   -0.1300
20     C20     1.6448   -5.4600   -4.6454 C.2      1 ZINC000033943508    0.4400
21     O21     1.4648   -4.1596   -4.8818 O.co2    1 ZINC000033943508   -0.6900
22     O22     1.8853   -6.2949   -5.6575 O.co2    1 ZINC000033943508   -0.7000
23     H23    -0.3139    1.2003   -1.2930 H        1 ZINC000033943508    0.0600
24     H24    -1.7176    0.3961   -2.0356 H        1 ZINC000033943508    0.0600
25     H25    -1.7305    0.7844   -0.2986 H        1 ZINC000033943508    0.0600
26     H26     0.2130   -2.1999    0.7185 H        1 ZINC000033943508    0.1100
27     H27    -0.8547    0.6241    1.2878 H        1 ZINC000033943508    0.1100
28     H28    -1.3140   -3.3434    1.7786 H        1 ZINC000033943508    0.0600
29     H29    -2.7330   -3.0169    2.8023 H        1 ZINC000033943508    0.0500
30     H30    -2.2590   -1.8539    1.5409 H        1 ZINC000033943508    0.0700
31     H31    -1.8386   -2.1002    5.2142 H        1 ZINC000033943508    0.0700
32     H32    -0.8663   -3.4723    4.6383 H        1 ZINC000033943508    0.0700
33     H33     0.2354   -2.0602    6.4511 H        1 ZINC000033943508    0.0600
34     H34     1.1948   -2.2437    4.9590 H        1 ZINC000033943508    0.0700
35     H35    -0.6704    0.1139    5.4956 H        1 ZINC000033943508    0.0600
36     H36     1.0815    0.1420    5.8282 H        1 ZINC000033943508    0.0600
37     H37     2.1992   -1.3970    3.5971 H        1 ZINC000033943508    0.0600
38     H38     2.2312   -0.1170    2.3605 H        1 ZINC000033943508    0.0600
39     H39     2.6967    0.2542    4.0380 H        1 ZINC000033943508    0.0500
40     H40     0.9515    2.0904    4.1717 H        1 ZINC000033943508    0.0500
41     H41     0.6368    1.7455    2.4541 H        1 ZINC000033943508    0.0600
42     H42    -0.7054    1.7413    3.6231 H        1 ZINC000033943508    0.0500
43     H43    -0.4255   -1.4639   -2.8680 H        1 ZINC000033943508    0.1100
44     H44     0.5635   -3.2699   -0.5401 H        1 ZINC000033943508    0.1100
45     H45     0.4275   -3.5886   -3.6084 H        1 ZINC000033943508    0.1800
46     H46     0.5126   -6.0744   -0.5263 H        1 ZINC000033943508    0.0600
47     H47     2.2650   -6.2086   -0.8077 H        1 ZINC000033943508    0.0600
48     H48     1.5688   -4.6690   -0.2481 H        1 ZINC000033943508    0.0700
49     H49     1.8275   -6.9816   -3.1267 H        1 ZINC000033943508    0.1100
@<TRIPOS>BOND
1     1     2     1
2     1     23    1
3     1     24    1
4     1     25    1
5     2     3     1
6     2     14    2
7     3     4     2
8     3     26    1
9     4     5     1
10    4     27    1
11    5     11    1
12    5     6     2
13    6     7     1
14    6     8     1
15    7     28    1
16    7     29    1
17    7     30    1
18    8     9     1
19    8     31    1
20    8     32    1
21    9     10    1
22    9     33    1
23    9     34    1
24    10    11    1
25    10    35    1
26    10    36    1
27    11    12    1
28    11    13    1
29    12    37    1
30    12    38    1
31    12    39    1
32    13    40    1
33    13    41    1
34    13    42    1
35    14    15    1
36    14    43    1
37    15    16    2
38    15    44    1
39    16    17    1
40    16    45    1
41    17    18    1
42    17    19    2
43    18    46    1
44    18    47    1
45    18    48    1
46    19    20    1
47    19    49    1
48    20    21    ar
49    20    22    ar
@<TRIPOS>SUBSTRUCTURE
1   ZINC000033943508 1     RESIDUE    1   A     ZIN   1
