@<TRIPOS>MOLECULE
ZINC000008035268
92    93    1     0     0
SMALL
USER_CHARGES
@<TRIPOS>ATOM
1      C1     -0.0187    1.5258    0.0104 C.3      1 ZINC000008035268   -0.1500
2      C2      0.0021   -0.0041    0.0020 C.3      1 ZINC000008035268   -0.1300
3      C3     -1.4333   -0.5336    0.0129 C.3      1 ZINC000008035268   -0.1200
4      C4     -1.4126   -2.0635    0.0045 C.3      1 ZINC000008035268   -0.1200
5      C5     -2.8479   -2.5931    0.0153 C.3      1 ZINC000008035268   -0.1200
6      C6     -2.8272   -4.1229    0.0069 C.3      1 ZINC000008035268   -0.1200
7      C7     -4.2626   -4.6525    0.0178 C.3      1 ZINC000008035268   -0.1200
8      C8     -4.2418   -6.1823    0.0094 C.3      1 ZINC000008035268   -0.1200
9      C9     -5.6772   -6.7119    0.0202 C.3      1 ZINC000008035268   -0.1200
10     C10    -5.6565   -8.2417    0.0118 C.3      1 ZINC000008035268   -0.1200
11     C11    -7.0918   -8.7713    0.0227 C.3      1 ZINC000008035268   -0.1200
12     C12    -7.0711  -10.3012    0.0143 C.3      1 ZINC000008035268   -0.1200
13     C13    -8.5065  -10.8307    0.0251 C.3      1 ZINC000008035268   -0.1200
14     C14    -8.4857  -12.3606    0.0167 C.3      1 ZINC000008035268   -0.1200
15     C15    -9.9211  -12.8902    0.0276 C.3      1 ZINC000008035268   -0.1500
16     C16    -9.9004  -14.4200    0.0191 C.3      1 ZINC000008035268   -0.0100
17     N17   -11.2785  -14.9285    0.0296 N.4      1 ZINC000008035268   -0.2600
18     C18   -11.9661  -14.4547    1.2382 C.3      1 ZINC000008035268   -0.0600
19     C19   -11.9890  -14.4418   -1.1605 C.3      1 ZINC000008035268   -0.0500
20     C20   -11.2586  -16.3973    0.0215 C.3      1 ZINC000008035268   -0.0300
21     C21   -12.6940  -16.9269    0.0324 C.3      1 ZINC000008035268    0.1100
22     N22   -12.6741  -18.3917    0.0243 N.pl3    1 ZINC000008035268   -0.5800
23     C23   -12.6521  -19.1310    1.2889 C.3      1 ZINC000008035268    0.1800
24     C24   -14.0651  -19.4038    1.7360 C.ar     1 ZINC000008035268   -0.1600
25     C25   -14.7226  -18.4918    2.5408 C.ar     1 ZINC000008035268   -0.0700
26     C26   -16.0180  -18.7395    2.9520 C.ar     1 ZINC000008035268   -0.1600
27     C27   -16.6593  -19.9044    2.5564 C.ar     1 ZINC000008035268    0.1400
28     O28   -17.9337  -20.1502    2.9592 O.3      1 ZINC000008035268   -0.3200
29     C29   -18.5312  -21.3694    2.5136 C.3      1 ZINC000008035268    0.0300
30     C30   -15.9975  -20.8177    1.7485 C.ar     1 ZINC000008035268   -0.2100
31     C31   -14.7039  -20.5630    1.3360 C.ar     1 ZINC000008035268   -0.0500
32     C32   -12.6762  -19.0772   -1.1781 C.ar     1 ZINC000008035268    0.5600
33     N33   -12.6908  -18.3930   -2.3126 N.ar     1 ZINC000008035268   -0.5800
34     C34   -12.6927  -19.0174   -3.4787 C.ar     1 ZINC000008035268    0.1900
35     C35   -12.6793  -20.4032   -3.5037 C.ar     1 ZINC000008035268   -0.2700
36     C36   -12.6642  -21.0875   -2.2985 C.ar     1 ZINC000008035268    0.2000
37     N37   -12.6580  -20.4020   -1.1673 N.ar     1 ZINC000008035268   -0.5600
38     H38     1.0039    1.9031    0.0027 H        1 ZINC000008035268    0.0500
39     H39    -0.5459    1.8868   -0.8726 H        1 ZINC000008035268    0.0500
40     H40    -0.5289    1.8773    0.9072 H        1 ZINC000008035268    0.0500
41     H41     0.5123   -0.3556   -0.8948 H        1 ZINC000008035268    0.0600
42     H42     0.5293   -0.3651    0.8851 H        1 ZINC000008035268    0.0600
43     H43    -1.9435   -0.1821    0.9097 H        1 ZINC000008035268    0.0600
44     H44    -1.9605   -0.1726   -0.8702 H        1 ZINC000008035268    0.0600
45     H45    -0.9024   -2.4150   -0.8923 H        1 ZINC000008035268    0.0600
46     H46    -0.8854   -2.4246    0.8875 H        1 ZINC000008035268    0.0600
47     H47    -3.3581   -2.2415    0.9121 H        1 ZINC000008035268    0.0600
48     H48    -3.3751   -2.2320   -0.8677 H        1 ZINC000008035268    0.0600
49     H49    -2.3170   -4.4744   -0.8899 H        1 ZINC000008035268    0.0600
50     H50    -2.3000   -4.4840    0.8900 H        1 ZINC000008035268    0.0600
51     H51    -4.7728   -4.3010    0.9146 H        1 ZINC000008035268    0.0600
52     H52    -4.7898   -4.2914   -0.8653 H        1 ZINC000008035268    0.0600
53     H53    -3.7316   -6.5338   -0.8874 H        1 ZINC000008035268    0.0600
54     H54    -3.7146   -6.5434    0.8924 H        1 ZINC000008035268    0.0600
55     H55    -6.1874   -6.3604    0.9170 H        1 ZINC000008035268    0.0600
56     H56    -6.2044   -6.3508   -0.8628 H        1 ZINC000008035268    0.0600
57     H57    -5.1463   -8.5933   -0.8850 H        1 ZINC000008035268    0.0600
58     H58    -5.1293   -8.6028    0.8949 H        1 ZINC000008035268    0.0600
59     H59    -7.6020   -8.4198    0.9195 H        1 ZINC000008035268    0.0600
60     H60    -7.6190   -8.4102   -0.8604 H        1 ZINC000008035268    0.0600
61     H61    -6.5609  -10.6527   -0.8825 H        1 ZINC000008035268    0.0600
62     H62    -6.5439  -10.6622    0.8973 H        1 ZINC000008035268    0.0600
63     H63    -9.0167  -10.4792    0.9219 H        1 ZINC000008035268    0.0700
64     H64    -9.0337  -10.4697   -0.8579 H        1 ZINC000008035268    0.0700
65     H65    -7.9755  -12.7121   -0.8801 H        1 ZINC000008035268    0.0700
66     H66    -7.9586  -12.7217    0.8998 H        1 ZINC000008035268    0.0700
67     H67   -10.4313  -12.5386    0.9244 H        1 ZINC000008035268    0.0900
68     H68   -10.4483  -12.5291   -0.8555 H        1 ZINC000008035268    0.0900
69     H69    -9.3902  -14.7715   -0.8776 H        1 ZINC000008035268    0.1300
70     H70    -9.3732  -14.7811    0.9022 H        1 ZINC000008035268    0.1300
71     H71   -11.9809  -13.3648    1.2442 H        1 ZINC000008035268    0.1300
72     H72   -12.9887  -14.8320    1.2459 H        1 ZINC000008035268    0.1200
73     H73   -11.4389  -14.8158    2.1213 H        1 ZINC000008035268    0.1200
74     H74   -11.4788  -14.7933   -2.0573 H        1 ZINC000008035268    0.1200
75     H75   -13.0116  -14.8191   -1.1528 H        1 ZINC000008035268    0.1200
76     H76   -12.0038  -13.3519   -1.1545 H        1 ZINC000008035268    0.1200
77     H77   -10.7484  -16.7488   -0.8753 H        1 ZINC000008035268    0.1300
78     H78   -10.7314  -16.7584    0.9046 H        1 ZINC000008035268    0.1300
79     H79   -13.2042  -16.5754    0.9291 H        1 ZINC000008035268    0.1000
80     H80   -13.2212  -16.5658   -0.8507 H        1 ZINC000008035268    0.1100
81     H81   -12.1266  -20.0756    1.1485 H        1 ZINC000008035268    0.1000
82     H82   -12.1391  -18.5390    2.0469 H        1 ZINC000008035268    0.0800
83     H83   -14.2229  -17.5851    2.8485 H        1 ZINC000008035268    0.1200
84     H84   -16.5309  -18.0272    3.5812 H        1 ZINC000008035268    0.1300
85     H85   -19.5458  -21.4413    2.9054 H        1 ZINC000008035268    0.1100
86     H86   -18.5607  -21.3826    1.4241 H        1 ZINC000008035268    0.0600
87     H87   -17.9428  -22.2143    2.8714 H        1 ZINC000008035268    0.0600
88     H88   -16.4945  -21.7253    1.4394 H        1 ZINC000008035268    0.1300
89     H89   -14.1885  -21.2735    0.7068 H        1 ZINC000008035268    0.1300
90     H90   -12.7050  -18.4542   -4.4002 H        1 ZINC000008035268    0.1700
91     H91   -12.6809  -20.9381   -4.4420 H        1 ZINC000008035268    0.1500
92     H92   -12.6538  -22.1674   -2.2833 H        1 ZINC000008035268    0.1700
@<TRIPOS>BOND
1     1     2     1
2     1     38    1
3     1     39    1
4     1     40    1
5     2     3     1
6     2     41    1
7     2     42    1
8     3     4     1
9     3     43    1
10    3     44    1
11    4     5     1
12    4     45    1
13    4     46    1
14    5     6     1
15    5     47    1
16    5     48    1
17    6     7     1
18    6     49    1
19    6     50    1
20    7     8     1
21    7     51    1
22    7     52    1
23    8     9     1
24    8     53    1
25    8     54    1
26    9     10    1
27    9     55    1
28    9     56    1
29    10    11    1
30    10    57    1
31    10    58    1
32    11    12    1
33    11    59    1
34    11    60    1
35    12    13    1
36    12    61    1
37    12    62    1
38    13    14    1
39    13    63    1
40    13    64    1
41    14    15    1
42    14    65    1
43    14    66    1
44    15    16    1
45    15    67    1
46    15    68    1
47    16    17    1
48    16    69    1
49    16    70    1
50    17    18    1
51    17    19    1
52    17    20    1
53    18    71    1
54    18    72    1
55    18    73    1
56    19    74    1
57    19    75    1
58    19    76    1
59    20    21    1
60    20    77    1
61    20    78    1
62    21    22    1
63    21    79    1
64    21    80    1
65    22    23    1
66    22    32    1
67    23    24    1
68    23    81    1
69    23    82    1
70    24    31    ar
71    24    25    ar
72    25    26    ar
73    25    83    1
74    26    27    ar
75    26    84    1
76    27    28    1
77    27    30    ar
78    28    29    1
79    29    85    1
80    29    86    1
81    29    87    1
82    30    31    ar
83    30    88    1
84    31    89    1
85    32    37    ar
86    32    33    ar
87    33    34    ar
88    34    35    ar
89    34    90    1
90    35    36    ar
91    35    91    1
92    36    37    ar
93    36    92    1
@<TRIPOS>SUBSTRUCTURE
1   ZINC000008035268 1     RESIDUE    1   A     ZIN   1
