@<TRIPOS>MOLECULE
ZINC000000001982
37    37    1     0     0
SMALL
USER_CHARGES
@<TRIPOS>ATOM
1      C1     -0.0187    1.5258    0.0104 C.3      1 ZINC000000001982   -0.1500
2      C2      0.0021   -0.0041    0.0020 C.3      1 ZINC000000001982   -0.1500
3      C3     -1.4333   -0.5336    0.0129 C.3      1 ZINC000000001982    0.1200
4      N4     -1.4134   -1.9985    0.0048 N.am     1 ZINC000000001982   -1.0000
5      C5     -1.2809   -2.7362    1.2636 C.3      1 ZINC000000001982    0.1200
6      C6     -2.6603   -2.9046    1.9037 C.3      1 ZINC000000001982   -0.1400
7      C7     -2.5218   -3.6750    3.2183 C.3      1 ZINC000000001982   -0.1500
8      S8     -1.5408   -2.8204   -1.4271 S.o2     1 ZINC000000001982    2.6900
9      O9     -2.0385   -4.1120   -1.1055 O.2      1 ZINC000000001982   -0.9600
10     O10    -2.1886   -1.9424   -2.3375 O.2      1 ZINC000000001982   -0.9600
11     C11     0.0940   -3.0557   -2.0407 C.ar     1 ZINC000000001982   -0.6900
12     C12     0.6629   -2.1030   -2.8676 C.ar     1 ZINC000000001982   -0.0400
13     C13     1.9421   -2.2804   -3.3516 C.ar     1 ZINC000000001982   -0.1100
14     C14     2.6639   -3.4255   -3.0052 C.ar     1 ZINC000000001982   -0.0700
15     C15     4.0330   -3.6223   -3.5186 C.2      1 ZINC000000001982    0.5100
16     O16     4.5387   -2.7820   -4.2492 O.co2    1 ZINC000000001982   -0.6800
17     O17     4.6621   -4.6256   -3.2135 O.co2    1 ZINC000000001982   -0.6800
18     C18     2.0831   -4.3831   -2.1699 C.ar     1 ZINC000000001982   -0.1100
19     C19     0.8050   -4.1896   -1.6888 C.ar     1 ZINC000000001982   -0.0400
20     H20     1.0039    1.9031    0.0027 H        1 ZINC000000001982    0.0600
21     H21    -0.5459    1.8868   -0.8726 H        1 ZINC000000001982    0.0600
22     H22    -0.5289    1.8773    0.9072 H        1 ZINC000000001982    0.0500
23     H23     0.5123   -0.3556   -0.8948 H        1 ZINC000000001982    0.0700
24     H24     0.5293   -0.3651    0.8851 H        1 ZINC000000001982    0.0700
25     H25    -1.9435   -0.1821    0.9097 H        1 ZINC000000001982    0.0800
26     H26    -1.9605   -0.1726   -0.8702 H        1 ZINC000000001982    0.0900
27     H27    -0.8498   -3.7176    1.0659 H        1 ZINC000000001982    0.0800
28     H28    -0.6306   -2.1837    1.9418 H        1 ZINC000000001982    0.0800
29     H29    -3.0913   -1.9231    2.1014 H        1 ZINC000000001982    0.0600
30     H30    -3.3106   -3.4571    1.2255 H        1 ZINC000000001982    0.0700
31     H31    -2.0908   -4.6564    3.0206 H        1 ZINC000000001982    0.0600
32     H32    -1.8715   -3.1225    3.8965 H        1 ZINC000000001982    0.0500
33     H33    -3.5045   -3.7949    3.6744 H        1 ZINC000000001982    0.0600
34     H34     0.1037   -1.2185   -3.1348 H        1 ZINC000000001982    0.1300
35     H35     2.3847   -1.5362   -3.9971 H        1 ZINC000000001982    0.1400
36     H36     2.6350   -5.2708   -1.8983 H        1 ZINC000000001982    0.1400
37     H37     0.3548   -4.9289   -1.0431 H        1 ZINC000000001982    0.1300
@<TRIPOS>BOND
1     1     2     1
2     1     20    1
3     1     21    1
4     1     22    1
5     2     3     1
6     2     23    1
7     2     24    1
8     3     4     1
9     3     25    1
10    3     26    1
11    4     5     1
12    4     8     am
13    5     6     1
14    5     27    1
15    5     28    1
16    6     7     1
17    6     29    1
18    6     30    1
19    7     31    1
20    7     32    1
21    7     33    1
22    8     9     2
23    8     10    2
24    8     11    1
25    11    19    ar
26    11    12    ar
27    12    13    ar
28    12    34    1
29    13    14    ar
30    13    35    1
31    14    15    1
32    14    18    ar
33    15    16    ar
34    15    17    ar
35    18    19    ar
36    18    36    1
37    19    37    1
@<TRIPOS>SUBSTRUCTURE
1   ZINC000000001982 1     RESIDUE    1   A     ZIN   1
