@<TRIPOS>MOLECULE
ZINC000003916214
69    72    1     0     0
SMALL
USER_CHARGES
@<TRIPOS>ATOM
1      C1     -3.0626   -2.3880    2.9604 C.3      1 ZINC000003916214   -0.1500
2      C2     -1.9212   -3.2396    2.4012 C.3      1 ZINC000003916214    0.0500
3      O3     -2.0653   -3.3582    0.9844 O.3      1 ZINC000003916214   -0.3100
4      C4     -1.1265   -4.0883    0.3280 C.ar     1 ZINC000003916214    0.1500
5      C5     -1.2110   -4.2363   -1.0651 C.ar     1 ZINC000003916214    0.1300
6      N6     -2.2605   -3.6310   -1.7664 N.am     1 ZINC000003916214   -0.6600
7      C7     -2.6567   -4.1337   -2.9524 C.2      1 ZINC000003916214    0.5500
8      O8     -2.1768   -5.1732   -3.3632 O.2      1 ZINC000003916214   -0.5200
9      C9     -3.6692   -3.4255   -3.7500 C.2      1 ZINC000003916214   -0.2100
10     C10    -4.0602   -3.9217   -4.9205 C.2      1 ZINC000003916214   -0.0400
11     C11    -5.0978   -3.1960   -5.7378 C.3      1 ZINC000003916214    0.0700
12     N12    -4.5686   -2.9383   -7.0837 N.3      1 ZINC000003916214   -0.5400
13     C13    -4.3616   -4.1941   -7.8173 C.3      1 ZINC000003916214    0.0200
14     C14    -5.4498   -2.0312   -7.8311 C.3      1 ZINC000003916214    0.0200
15     C15    -0.2678   -4.9726   -1.7465 C.ar     1 ZINC000003916214   -0.0700
16     C16     0.7830   -5.5777   -1.0423 C.ar     1 ZINC000003916214   -0.1300
17     C17     0.8702   -5.4297    0.3633 C.ar     1 ZINC000003916214    0.1800
18     C18    -0.0999   -4.6703    1.0351 C.ar     1 ZINC000003916214   -0.1900
19     N19     1.8738   -6.0059    1.0416 N.ar     1 ZINC000003916214   -0.4800
20     C20     2.7973   -6.7154    0.4450 C.ar     1 ZINC000003916214    0.1900
21     C21     2.7897   -6.9140   -0.9450 C.ar     1 ZINC000003916214   -0.1100
22     C22     3.8139   -7.6957   -1.5700 C.1      1 ZINC000003916214    0.2500
23     N23     4.6264   -8.3158   -2.0658 N.1      1 ZINC000003916214   -0.4000
24     C24     1.7668   -6.3395   -1.7150 C.ar     1 ZINC000003916214    0.2900
25     N25     1.7228   -6.5111   -3.0837 N.pl3    1 ZINC000003916214   -0.7000
26     C26     1.4831   -7.7802   -3.6224 C.ar     1 ZINC000003916214    0.1600
27     C27     0.6493   -8.6704   -2.9586 C.ar     1 ZINC000003916214   -0.1100
28     C28     0.4130   -9.9231   -3.4907 C.ar     1 ZINC000003916214   -0.1600
29     C29     1.0078  -10.2923   -4.6875 C.ar     1 ZINC000003916214    0.1200
30     O30     0.7740  -11.5257   -5.2106 O.3      1 ZINC000003916214   -0.3000
31     C31    -0.0944  -12.3889   -4.4740 C.3      1 ZINC000003916214    0.1100
32     C32    -0.2339  -13.7012   -5.2016 C.ar     1 ZINC000003916214    0.1200
33     C33     0.4425  -13.8982   -6.3904 C.ar     1 ZINC000003916214   -0.1500
34     C34     0.3078  -15.1095   -7.0518 C.ar     1 ZINC000003916214   -0.0700
35     C35    -0.5058  -16.0812   -6.4899 C.ar     1 ZINC000003916214   -0.1700
36     C36    -1.1511  -15.8122   -5.2975 C.ar     1 ZINC000003916214    0.1000
37     N37    -0.9957  -14.6504   -4.6937 N.ar     1 ZINC000003916214   -0.4800
38     C38     1.8417   -9.4032   -5.3523 C.ar     1 ZINC000003916214   -0.0300
39     Cl39    2.5861   -9.8663   -6.8507 Cl       1 ZINC000003916214   -0.0500
40     C40     2.0745   -8.1479   -4.8243 C.ar     1 ZINC000003916214   -0.1100
41     H41    -3.0319   -1.3969    2.5079 H        1 ZINC000003916214    0.0700
42     H42    -4.0165   -2.8629    2.7307 H        1 ZINC000003916214    0.0700
43     H43    -2.9527   -2.2976    4.0411 H        1 ZINC000003916214    0.0800
44     H44    -0.9673   -2.7647    2.6309 H        1 ZINC000003916214    0.0700
45     H45    -1.9519   -4.2308    2.8537 H        1 ZINC000003916214    0.0700
46     H46    -2.7025   -2.8498   -1.3987 H        1 ZINC000003916214    0.4200
47     H47    -4.0952   -2.5026   -3.3852 H        1 ZINC000003916214    0.1300
48     H48    -3.6342   -4.8446   -5.2853 H        1 ZINC000003916214    0.1300
49     H49    -5.9960   -3.8090   -5.8117 H        1 ZINC000003916214    0.0600
50     H50    -5.3426   -2.2492   -5.2562 H        1 ZINC000003916214    0.0900
51     H51    -5.3110   -4.7215   -7.9100 H        1 ZINC000003916214    0.0300
52     H52    -3.9695   -3.9744   -8.8103 H        1 ZINC000003916214    0.0700
53     H53    -3.6507   -4.8182   -7.2758 H        1 ZINC000003916214    0.0700
54     H54    -5.5301   -1.0829   -7.2996 H        1 ZINC000003916214    0.0700
55     H55    -5.0346   -1.8574   -8.8238 H        1 ZINC000003916214    0.0700
56     H56    -6.4386   -2.4802   -7.9243 H        1 ZINC000003916214    0.0300
57     H57    -0.3372   -5.0838   -2.8185 H        1 ZINC000003916214    0.1700
58     H58    -0.0452   -4.5496    2.1069 H        1 ZINC000003916214    0.1500
59     H59     3.5849   -7.1588    1.0361 H        1 ZINC000003916214    0.1700
60     H60     1.8581   -5.7521   -3.6723 H        1 ZINC000003916214    0.4200
61     H61     0.1860   -8.3835   -2.0262 H        1 ZINC000003916214    0.1300
62     H62    -0.2353  -10.6154   -2.9740 H        1 ZINC000003916214    0.1400
63     H63     0.3239  -12.5656   -3.4830 H        1 ZINC000003916214    0.0900
64     H64    -1.0743  -11.9215   -4.3767 H        1 ZINC000003916214    0.0900
65     H65     1.0679  -13.1184   -6.7993 H        1 ZINC000003916214    0.1500
66     H66     0.8242  -15.2914   -7.9828 H        1 ZINC000003916214    0.1400
67     H67    -0.6340  -17.0361   -6.9779 H        1 ZINC000003916214    0.1400
68     H68    -1.7870  -16.5637   -4.8534 H        1 ZINC000003916214    0.1600
69     H69     2.7231   -7.4562   -5.3413 H        1 ZINC000003916214    0.1400
@<TRIPOS>BOND
1     1     2     1
2     1     41    1
3     1     42    1
4     1     43    1
5     2     3     1
6     2     44    1
7     2     45    1
8     3     4     1
9     4     18    ar
10    4     5     ar
11    5     6     1
12    5     15    ar
13    6     7     am
14    6     46    1
15    7     8     2
16    7     9     1
17    9     10    2
18    9     47    1
19    10    11    1
20    10    48    1
21    11    12    1
22    11    49    1
23    11    50    1
24    12    13    1
25    12    14    1
26    13    51    1
27    13    52    1
28    13    53    1
29    14    54    1
30    14    55    1
31    14    56    1
32    15    16    ar
33    15    57    1
34    16    24    ar
35    16    17    ar
36    17    18    ar
37    17    19    ar
38    18    58    1
39    19    20    ar
40    20    21    ar
41    20    59    1
42    21    22    1
43    21    24    ar
44    22    23    3
45    24    25    1
46    25    26    1
47    25    60    1
48    26    40    ar
49    26    27    ar
50    27    28    ar
51    27    61    1
52    28    29    ar
53    28    62    1
54    29    30    1
55    29    38    ar
56    30    31    1
57    31    32    1
58    31    63    1
59    31    64    1
60    32    37    ar
61    32    33    ar
62    33    34    ar
63    33    65    1
64    34    35    ar
65    34    66    1
66    35    36    ar
67    35    67    1
68    36    37    ar
69    36    68    1
70    38    39    1
71    38    40    ar
72    40    69    1
@<TRIPOS>SUBSTRUCTURE
1   ZINC000003916214 1     RESIDUE    1   A     ZIN   1
