@<TRIPOS>MOLECULE
ZINC000008214625
20    19    1     0     0
SMALL
USER_CHARGES
@<TRIPOS>ATOM
1      O1      0.0021   -0.0041    0.0020 O.2      1 ZINC000008214625   -0.1200
2      N2     -0.0144    1.2138    0.0087 N.pl3    1 ZINC000008214625    0.1200
3      O3      1.0320    1.8371    0.0021 O.2      1 ZINC000008214625   -0.0400
4      O4     -1.2502    1.9051    0.0183 O.3      1 ZINC000008214625   -0.2200
5      C5     -2.3948    1.0495    0.0191 C.3      1 ZINC000008214625    0.0100
6      C6     -3.6669    1.8995    0.0298 C.3      1 ZINC000008214625    0.0800
7      C7     -4.8899    0.9887   -0.0951 C.3      1 ZINC000008214625    0.0400
8      O8     -6.0698    1.7877   -0.2023 O.3      1 ZINC000008214625   -0.2200
9      N9     -7.2645    1.0372   -0.3232 N.pl3    1 ZINC000008214625    0.1300
10     O10    -7.2212   -0.1800   -0.3286 O.2      1 ZINC000008214625   -0.1100
11     O11    -8.3355    1.6089   -0.4217 O.2      1 ZINC000008214625   -0.0500
12     O12    -3.7408    2.6309    1.2552 O.3      1 ZINC000008214625   -0.2200
13     N13    -3.0269    3.8537    1.2400 N.pl3    1 ZINC000008214625    0.1200
14     O14    -2.4234    4.1942    0.2383 O.2      1 ZINC000008214625   -0.1000
15     O15    -3.0164    4.5650    2.2286 O.2      1 ZINC000008214625   -0.0500
16     H16    -2.3824    0.4252   -0.8743 H        1 ZINC000008214625    0.1300
17     H17    -2.3739    0.4156    0.9056 H        1 ZINC000008214625    0.1100
18     H18    -3.6455    2.5960   -0.8084 H        1 ZINC000008214625    0.1400
19     H19    -4.7903    0.3666   -0.9846 H        1 ZINC000008214625    0.1400
20     H20    -4.9608    0.3526    0.7872 H        1 ZINC000008214625    0.1200
@<TRIPOS>BOND
1     1     2     2
2     2     3     2
3     2     4     1
4     4     5     1
5     5     6     1
6     5     16    1
7     5     17    1
8     6     7     1
9     6     12    1
10    6     18    1
11    7     8     1
12    7     19    1
13    7     20    1
14    8     9     1
15    9     10    2
16    9     11    2
17    12    13    1
18    13    14    2
19    13    15    2
@<TRIPOS>SUBSTRUCTURE
1   ZINC000008214625 1     RESIDUE    1   A     ZIN   1
