@<TRIPOS>MOLECULE
ZINC000222731806
50    52    1     0     0
SMALL
USER_CHARGES
@<TRIPOS>ATOM
1      C1     -0.8515    1.4391   -0.5020 C.3      1 ZINC000222731806   -0.1800
2      C2     -0.6204   -0.0685   -0.3809 C.3      1 ZINC000222731806    0.1200
3      C3      0.0876   -0.3713    0.9412 C.3      1 ZINC000222731806   -0.1400
4      O4     -1.8775   -0.7473   -0.4144 O.3      1 ZINC000222731806   -0.5500
5      C5      0.2485   -0.5466   -1.5459 C.3      1 ZINC000222731806    0.1100
6      N6      0.4697   -1.9901   -1.4299 N.pl3    1 ZINC000222731806   -0.6700
7      C7      1.2302   -2.6498   -2.3741 C.ar     1 ZINC000222731806    0.6300
8      N8      1.7662   -1.9746   -3.3854 N.ar     1 ZINC000222731806   -0.6400
9      C9      2.4988   -2.6096   -4.2944 C.ar     1 ZINC000222731806    0.6300
10     N10     3.0562   -1.9071   -5.3462 N.pl3    1 ZINC000222731806   -0.6200
11     C11     2.9515   -0.5178   -5.3896 C.ar     1 ZINC000222731806    0.2100
12     C12     2.9620    0.2372   -4.2176 C.ar     1 ZINC000222731806   -0.1400
13     C13     2.8566    1.6099   -4.3037 C.ar     1 ZINC000222731806    0.1300
14     N14     2.7466    2.2079   -5.4750 N.ar     1 ZINC000222731806   -0.4500
15     C15     2.7328    1.5284   -6.6065 C.ar     1 ZINC000222731806    0.0600
16     C16     2.6054    2.2650   -7.9150 C.3      1 ZINC000222731806    0.5200
17     F17     2.6332    3.6436   -7.6787 F        1 ZINC000222731806   -0.1600
18     F18     3.6691    1.9140   -8.7533 F        1 ZINC000222731806   -0.1700
19     F19     1.3957    1.9211   -8.5279 F        1 ZINC000222731806   -0.1700
20     C20     2.8394    0.1535   -6.6069 C.ar     1 ZINC000222731806   -0.1500
21     N21     2.6959   -3.9203   -4.1919 N.ar     1 ZINC000222731806   -0.6200
22     C22     2.1598   -4.5960   -3.1804 C.ar     1 ZINC000222731806    0.4800
23     C23     2.3798   -6.0594   -3.0659 C.ar     1 ZINC000222731806    0.1700
24     C24     3.1533   -6.7175   -4.0180 C.ar     1 ZINC000222731806   -0.0800
25     C25     3.3504   -8.0838   -3.8979 C.ar     1 ZINC000222731806   -0.0800
26     C26     2.7661   -8.7448   -2.8283 C.ar     1 ZINC000222731806   -0.1000
27     C27     2.0089   -8.0267   -1.9186 C.ar     1 ZINC000222731806    0.0400
28     C28     1.3721   -8.7403   -0.7540 C.3      1 ZINC000222731806    0.5300
29     F29     2.2547   -8.7413    0.3314 F        1 ZINC000222731806   -0.1700
30     F30     0.1907   -8.0832   -0.3939 F        1 ZINC000222731806   -0.1600
31     F31     1.0798  -10.0590   -1.1185 F        1 ZINC000222731806   -0.1700
32     N32     1.8422   -6.7281   -2.0542 N.ar     1 ZINC000222731806   -0.3900
33     N33     1.4310   -3.9601   -2.2688 N.ar     1 ZINC000222731806   -0.5800
34     H34     0.1073    1.9568   -0.4765 H        1 ZINC000222731806    0.0700
35     H35    -1.3559    1.6548   -1.4439 H        1 ZINC000222731806    0.0600
36     H36    -1.4706    1.7796    0.3279 H        1 ZINC000222731806    0.0700
37     H37    -0.5315   -0.0307    1.7712 H        1 ZINC000222731806    0.0700
38     H38     0.2522   -1.4453    1.0275 H        1 ZINC000222731806    0.0600
39     H39     1.0464    0.1464    0.9668 H        1 ZINC000222731806    0.0700
40     H40    -2.3823   -0.6003   -1.2259 H        1 ZINC000222731806    0.3800
41     H41    -0.2559   -0.3308   -2.4878 H        1 ZINC000222731806    0.0700
42     H42     1.2073   -0.0288   -1.5204 H        1 ZINC000222731806    0.0800
43     H43     0.0818   -2.4823   -0.6895 H        1 ZINC000222731806    0.4300
44     H44     3.5202   -2.3809   -6.0541 H        1 ZINC000222731806    0.4300
45     H45     3.0510   -0.2459   -3.2558 H        1 ZINC000222731806    0.1500
46     H46     2.8639    2.2028   -3.4010 H        1 ZINC000222731806    0.1700
47     H47     2.8278   -0.3964   -7.5363 H        1 ZINC000222731806    0.1500
48     H48     3.5934   -6.1709   -4.8390 H        1 ZINC000222731806    0.1600
49     H49     3.9453   -8.6216   -4.6212 H        1 ZINC000222731806    0.1600
50     H50     2.9001   -9.8095   -2.7062 H        1 ZINC000222731806    0.1600
@<TRIPOS>BOND
1     1     2     1
2     1     34    1
3     1     35    1
4     1     36    1
5     2     3     1
6     2     4     1
7     2     5     1
8     3     37    1
9     3     38    1
10    3     39    1
11    4     40    1
12    5     6     1
13    5     41    1
14    5     42    1
15    6     7     1
16    6     43    1
17    7     33    ar
18    7     8     ar
19    8     9     ar
20    9     10    1
21    9     21    ar
22    10    11    1
23    10    44    1
24    11    20    ar
25    11    12    ar
26    12    13    ar
27    12    45    1
28    13    14    ar
29    13    46    1
30    14    15    ar
31    15    16    1
32    15    20    ar
33    16    17    1
34    16    18    1
35    16    19    1
36    20    47    1
37    21    22    ar
38    22    23    1
39    22    33    ar
40    23    32    ar
41    23    24    ar
42    24    25    ar
43    24    48    1
44    25    26    ar
45    25    49    1
46    26    27    ar
47    26    50    1
48    27    28    1
49    27    32    ar
50    28    29    1
51    28    30    1
52    28    31    1
@<TRIPOS>SUBSTRUCTURE
1   ZINC000222731806 1     RESIDUE    1   A     ZIN   1
