@<TRIPOS>MOLECULE
ZINC000012468792
71    72    1     0     0
SMALL
USER_CHARGES
@<TRIPOS>ATOM
1      C1      2.4769   -5.4082    5.6238 C.3      1 ZINC000012468792   -0.1500
2      C2      1.8683   -5.0137    4.2766 C.3      1 ZINC000012468792    0.0800
3      C3      2.8247   -5.4088    3.1497 C.3      1 ZINC000012468792   -0.1700
4      O4      0.6009   -5.6996    4.0986 O.3      1 ZINC000012468792   -0.3600
5      C5     -0.3322   -5.0746    3.3634 C.2      1 ZINC000012468792    0.4600
6      O6     -0.0977   -3.9904    2.8845 O.2      1 ZINC000012468792   -0.5100
7      C7     -1.6722   -5.7253    3.1354 C.3      1 ZINC000012468792   -0.1100
8      C8     -2.5430   -4.8104    2.2719 C.3      1 ZINC000012468792   -0.1000
9      C9     -3.9035   -5.4710    2.0404 C.3      1 ZINC000012468792   -0.1000
10     C10    -4.7612   -4.5698    1.1900 C.2      1 ZINC000012468792   -0.1600
11     C11    -5.3288   -5.0377    0.1060 C.2      1 ZINC000012468792   -0.1500
12     C12    -5.2655   -6.5117   -0.2016 C.3      1 ZINC000012468792   -0.0800
13     C13    -6.6802   -7.0449   -0.4364 C.3      1 ZINC000012468792   -0.0700
14     H14    -7.1766   -6.4581   -1.2092 H        1 ZINC000012468792    0.0800
15     C15    -7.4893   -6.9865    0.8711 C.3      1 ZINC000012468792   -0.0800
16     H16    -6.8741   -6.5783    1.6730 H        1 ZINC000012468792    0.0900
17     C17    -8.7373   -6.1230    0.6770 C.3      1 ZINC000012468792   -0.1100
18     C18    -9.4654   -5.9711    2.0141 C.3      1 ZINC000012468792   -0.1500
19     C19   -10.7134   -5.1076    1.8200 C.3      1 ZINC000012468792    0.1000
20     H20   -10.4306   -4.1566    1.3687 H        1 ZINC000012468792    0.1000
21     O21   -11.6339   -5.7864    0.9633 O.3      1 ZINC000012468792   -0.5600
22     C22   -11.3728   -4.8521    3.1768 C.3      1 ZINC000012468792   -0.1400
23     C23   -12.5474   -3.8878    2.9994 C.3      1 ZINC000012468792   -0.0800
24     C24   -13.1969   -3.6361    4.3358 C.ar     1 ZINC000012468792   -0.0800
25     C25   -14.2253   -4.4520    4.7690 C.ar     1 ZINC000012468792   -0.1200
26     C26   -14.8211   -4.2212    5.9948 C.ar     1 ZINC000012468792   -0.1200
27     C27   -14.3882   -3.1747    6.7876 C.ar     1 ZINC000012468792   -0.1300
28     C28   -13.3592   -2.3594    6.3548 C.ar     1 ZINC000012468792   -0.1200
29     C29   -12.7606   -2.5929    5.1308 C.ar     1 ZINC000012468792   -0.1200
30     C30    -7.8956   -8.4372    1.2031 C.3      1 ZINC000012468792    0.1100
31     H31    -8.8952   -8.6497    0.8240 H        1 ZINC000012468792    0.0600
32     O32    -7.8385   -8.6624    2.6131 O.3      1 ZINC000012468792   -0.5600
33     C33    -6.8421   -9.3040    0.4697 C.3      1 ZINC000012468792   -0.1900
34     C34    -6.6230   -8.5287   -0.8546 C.3      1 ZINC000012468792    0.1000
35     H35    -7.4171   -8.7562   -1.5657 H        1 ZINC000012468792    0.0600
36     O36    -5.3466   -8.8451   -1.4140 O.3      1 ZINC000012468792   -0.5600
37     H37     3.4283   -4.8934    5.7574 H        1 ZINC000012468792    0.0800
38     H38     1.7956   -5.1268    6.4267 H        1 ZINC000012468792    0.0600
39     H39     2.6404   -6.4857    5.6470 H        1 ZINC000012468792    0.0700
40     H40     1.7048   -3.9363    4.2534 H        1 ZINC000012468792    0.0800
41     H41     2.9882   -6.4862    3.1729 H        1 ZINC000012468792    0.0700
42     H42     2.3911   -5.1277    2.1899 H        1 ZINC000012468792    0.0600
43     H43     3.7761   -4.8940    3.2833 H        1 ZINC000012468792    0.0800
44     H44    -1.5312   -6.6789    2.6266 H        1 ZINC000012468792    0.1100
45     H45    -2.1620   -5.8941    4.0944 H        1 ZINC000012468792    0.1100
46     H46    -2.6840   -3.8568    2.7807 H        1 ZINC000012468792    0.0700
47     H47    -2.0532   -4.6416    1.3130 H        1 ZINC000012468792    0.0700
48     H48    -3.7625   -6.4246    1.5316 H        1 ZINC000012468792    0.0800
49     H49    -4.3934   -5.6398    2.9994 H        1 ZINC000012468792    0.0700
50     H50    -4.9080   -3.5383    1.4741 H        1 ZINC000012468792    0.1100
51     H51    -5.8422   -4.3672   -0.5673 H        1 ZINC000012468792    0.1100
52     H52    -4.6641   -6.6705   -1.0967 H        1 ZINC000012468792    0.0800
53     H53    -4.8132   -7.0390    0.6383 H        1 ZINC000012468792    0.0800
54     H54    -8.4450   -5.1396    0.3087 H        1 ZINC000012468792    0.0700
55     H55    -9.4000   -6.5994   -0.0455 H        1 ZINC000012468792    0.0700
56     H56    -9.7577   -6.9545    2.3824 H        1 ZINC000012468792    0.0700
57     H57    -8.8027   -5.4947    2.7366 H        1 ZINC000012468792    0.0700
58     H58   -11.9291   -6.6424    1.3028 H        1 ZINC000012468792    0.3700
59     H59   -11.7352   -5.7943    3.5878 H        1 ZINC000012468792    0.0700
60     H60   -10.6435   -4.4148    3.8586 H        1 ZINC000012468792    0.0700
61     H61   -12.1850   -2.9455    2.5884 H        1 ZINC000012468792    0.0700
62     H62   -13.2767   -4.3250    2.3175 H        1 ZINC000012468792    0.0800
63     H63   -14.5635   -5.2695    4.1496 H        1 ZINC000012468792    0.1200
64     H64   -15.6250   -4.8582    6.3330 H        1 ZINC000012468792    0.1200
65     H65   -14.8542   -2.9940    7.7450 H        1 ZINC000012468792    0.1200
66     H66   -13.0213   -1.5417    6.9740 H        1 ZINC000012468792    0.1200
67     H67   -11.9566   -1.9559    4.7927 H        1 ZINC000012468792    0.1200
68     H68    -8.0843   -9.5592    2.8785 H        1 ZINC000012468792    0.3800
69     H69    -5.9174   -9.3565    1.0443 H        1 ZINC000012468792    0.0900
70     H70    -7.2328  -10.3023    0.2725 H        1 ZINC000012468792    0.0700
71     H71    -5.2370   -9.7787   -1.6407 H        1 ZINC000012468792    0.3800
@<TRIPOS>BOND
1     1     2     1
2     1     37    1
3     1     38    1
4     1     39    1
5     2     3     1
6     2     4     1
7     2     40    1
8     3     41    1
9     3     42    1
10    3     43    1
11    4     5     1
12    5     6     2
13    5     7     1
14    7     8     1
15    7     44    1
16    7     45    1
17    8     9     1
18    8     46    1
19    8     47    1
20    9     10    1
21    9     48    1
22    9     49    1
23    10    11    2
24    10    50    1
25    11    12    1
26    11    51    1
27    12    13    1
28    12    52    1
29    12    53    1
30    13    14    1
31    13    34    1
32    13    15    1
33    15    16    1
34    15    17    1
35    15    30    1
36    17    18    1
37    17    54    1
38    17    55    1
39    18    19    1
40    18    56    1
41    18    57    1
42    19    20    1
43    19    21    1
44    19    22    1
45    21    58    1
46    22    23    1
47    22    59    1
48    22    60    1
49    23    24    1
50    23    61    1
51    23    62    1
52    24    29    ar
53    24    25    ar
54    25    26    ar
55    25    63    1
56    26    27    ar
57    26    64    1
58    27    28    ar
59    27    65    1
60    28    29    ar
61    28    66    1
62    29    67    1
63    30    31    1
64    30    32    1
65    30    33    1
66    32    68    1
67    33    34    1
68    33    69    1
69    33    70    1
70    34    35    1
71    34    36    1
72    36    71    1
@<TRIPOS>SUBSTRUCTURE
1   ZINC000012468792 1     RESIDUE    1   A     ZIN   1
