@<TRIPOS>MOLECULE
ZINC000003812841
65    67    1     0     0
SMALL
USER_CHARGES
@<TRIPOS>ATOM
1      C1      0.6223    1.0036    1.0336 C.3      1 ZINC000003812841   -0.1500
2      C2      0.8487   -0.5075    0.9553 C.3      1 ZINC000003812841   -0.1100
3      C3      1.2135   -0.8949   -0.4792 C.3      1 ZINC000003812841   -0.0900
4      H4      2.0726   -0.3092   -0.8064 H        1 ZINC000003812841    0.1100
5      C5      0.0248   -0.6153   -1.4010 C.3      1 ZINC000003812841   -0.1500
6      C6      1.5560   -2.3615   -0.5319 C.2      1 ZINC000003812841    0.4500
7      O7      1.5128   -3.0285    0.4747 O.2      1 ZINC000003812841   -0.5100
8      O8      1.9092   -2.9268   -1.6970 O.3      1 ZINC000003812841   -0.3200
9      C9      2.2256   -4.3437   -1.6730 C.3      1 ZINC000003812841    0.0900
10     H10     2.6324   -4.5995   -0.6946 H        1 ZINC000003812841    0.0800
11     C11     0.9447   -5.1430   -1.9031 C.3      1 ZINC000003812841   -0.1300
12     C12     1.2979   -6.6367   -1.8877 C.3      1 ZINC000003812841   -0.0600
13     H13     1.7641   -6.8961   -0.9372 H        1 ZINC000003812841    0.0800
14     C14     0.0312   -7.4710   -2.0884 C.3      1 ZINC000003812841   -0.1400
15     C15     2.2631   -6.8920   -3.0162 C.2      1 ZINC000003812841   -0.1400
16     C16     3.1259   -5.9677   -3.3959 C.2      1 ZINC000003812841   -0.0900
17     C17     3.9786   -6.2193   -4.5807 C.2      1 ZINC000003812841   -0.1200
18     C18     4.5991   -5.2112   -5.1686 C.2      1 ZINC000003812841   -0.1400
19     C19     4.5169   -3.7888   -4.7050 C.3      1 ZINC000003812841   -0.0600
20     H20     4.4528   -3.1345   -5.5744 H        1 ZINC000003812841    0.0800
21     C21     5.7822   -3.4471   -3.9157 C.3      1 ZINC000003812841   -0.1600
22     C22     3.2962   -3.5552   -3.8136 C.3      1 ZINC000003812841   -0.0600
23     H23     2.3882   -3.6171   -4.4135 H        1 ZINC000003812841    0.0700
24     C24     3.3904   -2.1719   -3.1667 C.3      1 ZINC000003812841   -0.1200
25     C25     3.9113   -1.1634   -4.1926 C.3      1 ZINC000003812841   -0.1300
26     C26     4.0055    0.2198   -3.5457 C.3      1 ZINC000003812841    0.1100
27     H27     3.0380    0.4909   -3.1231 H        1 ZINC000003812841    0.0900
28     C28     4.4097    1.2521   -4.6018 C.3      1 ZINC000003812841   -0.1500
29     C29     4.5545    2.6259   -3.9398 C.3      1 ZINC000003812841    0.1000
30     H30     4.8461    3.3627   -4.6883 H        1 ZINC000003812841    0.0800
31     O31     3.3089    3.0076   -3.3528 O.3      1 ZINC000003812841   -0.5600
32     C32     5.6331    2.5440   -2.8527 C.3      1 ZINC000003812841   -0.2100
33     C33     5.2975    1.3905   -1.9333 C.2      1 ZINC000003812841    0.4900
34     O34     5.2879    1.5343   -0.7337 O.2      1 ZINC000003812841   -0.4500
35     O35     5.0076    0.1960   -2.4906 O.3      1 ZINC000003812841   -0.3700
36     C36     3.2664   -4.6328   -2.7288 C.3      1 ZINC000003812841   -0.0400
37     H37     4.2342   -4.6193   -2.2276 H        1 ZINC000003812841    0.0800
38     H38     1.5335    1.5233    0.7375 H        1 ZINC000003812841    0.0600
39     H39    -0.1902    1.2845    0.3635 H        1 ZINC000003812841    0.0600
40     H40     0.3624    1.2796    2.0555 H        1 ZINC000003812841    0.0600
41     H41     1.6612   -0.7884    1.6253 H        1 ZINC000003812841    0.0700
42     H42    -0.0625   -1.0272    1.2513 H        1 ZINC000003812841    0.0700
43     H43    -0.2229    0.4455   -1.3629 H        1 ZINC000003812841    0.0700
44     H44     0.2848   -0.8913   -2.4230 H        1 ZINC000003812841    0.0700
45     H45    -0.8342   -1.2010   -1.0739 H        1 ZINC000003812841    0.0600
46     H46     0.2292   -4.9265   -1.1098 H        1 ZINC000003812841    0.0700
47     H47     0.5145   -4.8773   -2.8688 H        1 ZINC000003812841    0.0800
48     H48    -0.4225   -7.2179   -3.0466 H        1 ZINC000003812841    0.0600
49     H49     0.2882   -8.5302   -2.0765 H        1 ZINC000003812841    0.0600
50     H50    -0.6744   -7.2593   -1.2851 H        1 ZINC000003812841    0.0600
51     H51     2.2491   -7.8461   -3.5222 H        1 ZINC000003812841    0.1200
52     H52     4.0930   -7.2230   -4.9627 H        1 ZINC000003812841    0.1200
53     H53     5.2036   -5.4263   -6.0374 H        1 ZINC000003812841    0.1100
54     H54     6.6553   -3.5748   -4.5557 H        1 ZINC000003812841    0.0500
55     H55     5.7297   -2.4131   -3.5748 H        1 ZINC000003812841    0.0800
56     H56     5.8632   -4.1100   -3.0542 H        1 ZINC000003812841    0.0500
57     H57     2.4030   -1.8635   -2.8231 H        1 ZINC000003812841    0.1100
58     H58     4.0737   -2.2132   -2.3185 H        1 ZINC000003812841    0.0700
59     H59     4.8987   -1.4718   -4.5362 H        1 ZINC000003812841    0.0900
60     H60     3.2280   -1.1221   -5.0408 H        1 ZINC000003812841    0.0900
61     H61     5.3605    0.9619   -5.0489 H        1 ZINC000003812841    0.1000
62     H62     3.6434    1.3002   -5.3754 H        1 ZINC000003812841    0.1000
63     H63     3.3282    3.8696   -2.9150 H        1 ZINC000003812841    0.3900
64     H64     6.6065    2.3752   -3.3133 H        1 ZINC000003812841    0.1200
65     H65     5.6520    3.4735   -2.2836 H        1 ZINC000003812841    0.1100
@<TRIPOS>BOND
1     1     2     1
2     1     38    1
3     1     39    1
4     1     40    1
5     2     3     1
6     2     41    1
7     2     42    1
8     3     4     1
9     3     5     1
10    3     6     1
11    5     43    1
12    5     44    1
13    5     45    1
14    6     7     2
15    6     8     1
16    8     9     1
17    9     10    1
18    9     36    1
19    9     11    1
20    11    12    1
21    11    46    1
22    11    47    1
23    12    13    1
24    12    14    1
25    12    15    1
26    14    48    1
27    14    49    1
28    14    50    1
29    15    16    2
30    15    51    1
31    16    36    1
32    16    17    1
33    17    18    2
34    17    52    1
35    18    19    1
36    18    53    1
37    19    20    1
38    19    21    1
39    19    22    1
40    21    54    1
41    21    55    1
42    21    56    1
43    22    23    1
44    22    24    1
45    22    36    1
46    24    25    1
47    24    57    1
48    24    58    1
49    25    26    1
50    25    59    1
51    25    60    1
52    26    27    1
53    26    35    1
54    26    28    1
55    28    29    1
56    28    61    1
57    28    62    1
58    29    30    1
59    29    31    1
60    29    32    1
61    31    63    1
62    32    33    1
63    32    64    1
64    32    65    1
65    33    34    2
66    33    35    1
67    36    37    1
@<TRIPOS>SUBSTRUCTURE
1   ZINC000003812841 1     RESIDUE    1   A     ZIN   1
