@<TRIPOS>MOLECULE
ZINC000004083606
71    74    1     0     0
SMALL
USER_CHARGES
@<TRIPOS>ATOM
1      C1     -0.1505    1.8524   -1.3651 C.3      1 ZINC000004083606   -0.1500
2      C2     -0.1782    0.3316   -1.1994 C.3      1 ZINC000004083606   -0.1300
3      C3      0.7238   -0.3128   -2.2539 C.3      1 ZINC000004083606   -0.1200
4      C4      0.6962   -1.8335   -2.0882 C.3      1 ZINC000004083606   -0.1100
5      C5      1.5982   -2.4779   -3.1428 C.3      1 ZINC000004083606   -0.1100
6      C6      1.5710   -3.9758   -2.9796 C.2      1 ZINC000004083606    0.4500
7      O7      0.8991   -4.4766   -2.1091 O.2      1 ZINC000004083606   -0.5000
8      O8      2.2932   -4.7537   -3.8012 O.3      1 ZINC000004083606   -0.3300
9      C9      2.3119   -6.1769   -3.5143 C.3      1 ZINC000004083606    0.0900
10     C10     0.9254   -6.7531   -3.6435 C.2      1 ZINC000004083606    0.3600
11     C11    -0.0232   -6.2086   -4.6803 C.3      1 ZINC000004083606   -0.2000
12     O12     0.5745   -7.6510   -2.9163 O.2      1 ZINC000004083606   -0.4300
13     C13     2.8700   -6.4303   -2.0917 C.3      1 ZINC000004083606   -0.1300
14     C14     4.1953   -7.2189   -2.2753 C.3      1 ZINC000004083606   -0.1200
15     C15     4.6244   -6.8422   -3.6976 C.3      1 ZINC000004083606   -0.0800
16     H16     5.0331   -5.8319   -3.7155 H        1 ZINC000004083606    0.0800
17     C17     5.5775   -7.8087   -4.3772 C.3      1 ZINC000004083606   -0.0800
18     H18     5.1394   -8.8064   -4.4050 H        1 ZINC000004083606    0.0900
19     C19     6.9078   -7.8423   -3.6193 C.3      1 ZINC000004083606   -0.1100
20     C20     7.8321   -8.8715   -4.2733 C.3      1 ZINC000004083606   -0.1000
21     C21     7.9756   -8.5334   -5.7459 C.2      1 ZINC000004083606   -0.0200
22     C22     9.2064   -8.4992   -6.2564 C.2      1 ZINC000004083606   -0.2400
23     C23     9.4039   -8.1937   -7.6774 C.2      1 ZINC000004083606    0.3900
24     O24    10.4643   -7.7836   -8.1011 O.2      1 ZINC000004083606   -0.4600
25     C25     8.2132   -8.4177   -8.5889 C.3      1 ZINC000004083606   -0.1700
26     C26     7.0085   -7.7342   -7.9437 C.3      1 ZINC000004083606   -0.1000
27     C27     6.7389   -8.2702   -6.5484 C.3      1 ZINC000004083606   -0.0300
28     C28     5.9743   -9.5881   -6.6871 C.3      1 ZINC000004083606   -0.1500
29     C29     5.8136   -7.2990   -5.8063 C.3      1 ZINC000004083606   -0.0700
30     H30     6.3005   -6.3260   -5.7402 H        1 ZINC000004083606    0.0700
31     C31     4.5128   -7.1510   -6.5902 C.3      1 ZINC000004083606   -0.1200
32     C32     3.4908   -6.2840   -5.8380 C.3      1 ZINC000004083606   -0.1000
33     C33     3.2721   -6.8937   -4.4580 C.3      1 ZINC000004083606   -0.0400
34     C34     2.8752   -8.3647   -4.5980 C.3      1 ZINC000004083606   -0.1600
35     H35     0.8704    2.2130   -1.2394 H        1 ZINC000004083606    0.0500
36     H36    -0.5091    2.1160   -2.3601 H        1 ZINC000004083606    0.0500
37     H37    -0.7931    2.3114   -0.6138 H        1 ZINC000004083606    0.0500
38     H38     0.1804    0.0680   -0.2044 H        1 ZINC000004083606    0.0600
39     H39    -1.1991   -0.0291   -1.3251 H        1 ZINC000004083606    0.0600
40     H40     0.3652   -0.0491   -3.2489 H        1 ZINC000004083606    0.0700
41     H41     1.7447    0.0479   -2.1283 H        1 ZINC000004083606    0.0600
42     H42     1.0548   -2.0972   -1.0933 H        1 ZINC000004083606    0.0700
43     H43    -0.3247   -2.1942   -2.2139 H        1 ZINC000004083606    0.0700
44     H44     1.2396   -2.2143   -4.1378 H        1 ZINC000004083606    0.1100
45     H45     2.6191   -2.1172   -3.0171 H        1 ZINC000004083606    0.1100
46     H46     0.1583   -6.7034   -5.6343 H        1 ZINC000004083606    0.1000
47     H47    -1.0503   -6.3926   -4.3652 H        1 ZINC000004083606    0.0900
48     H48     0.1363   -5.1361   -4.7911 H        1 ZINC000004083606    0.0800
49     H49     3.0653   -5.4815   -1.5920 H        1 ZINC000004083606    0.0800
50     H50     2.1608   -7.0203   -1.5112 H        1 ZINC000004083606    0.0900
51     H51     4.9407   -6.8949   -1.5490 H        1 ZINC000004083606    0.0700
52     H52     4.0198   -8.2918   -2.1968 H        1 ZINC000004083606    0.0800
53     H53     7.3738   -6.8577   -3.6576 H        1 ZINC000004083606    0.0700
54     H54     6.7286   -8.1214   -2.5810 H        1 ZINC000004083606    0.0700
55     H55     8.8106   -8.8403   -3.7942 H        1 ZINC000004083606    0.0800
56     H56     7.4027   -9.8677   -4.1673 H        1 ZINC000004083606    0.0800
57     H57    10.0588   -8.6970   -5.6234 H        1 ZINC000004083606    0.1300
58     H58     8.4080   -7.9789   -9.5674 H        1 ZINC000004083606    0.0900
59     H59     8.0216   -9.4857   -8.6923 H        1 ZINC000004083606    0.1000
60     H60     7.1985   -6.6626   -7.8827 H        1 ZINC000004083606    0.0700
61     H61     6.1291   -7.9030   -8.5652 H        1 ZINC000004083606    0.0800
62     H62     6.6247  -10.3402   -7.1337 H        1 ZINC000004083606    0.0600
63     H63     5.6509   -9.9259   -5.7025 H        1 ZINC000004083606    0.0600
64     H64     5.1027   -9.4372   -7.3239 H        1 ZINC000004083606    0.0700
65     H65     4.7290   -6.6900   -7.5539 H        1 ZINC000004083606    0.0700
66     H66     4.0849   -8.1393   -6.7585 H        1 ZINC000004083606    0.0700
67     H67     3.8866   -5.2776   -5.7017 H        1 ZINC000004083606    0.0700
68     H68     2.5556   -6.2438   -6.3963 H        1 ZINC000004083606    0.0700
69     H69     3.6234   -8.8878   -5.1935 H        1 ZINC000004083606    0.0800
70     H70     2.8140   -8.8202   -3.6096 H        1 ZINC000004083606    0.0700
71     H71     1.9053   -8.4340   -5.0906 H        1 ZINC000004083606    0.0500
@<TRIPOS>BOND
1     1     2     1
2     1     35    1
3     1     36    1
4     1     37    1
5     2     3     1
6     2     38    1
7     2     39    1
8     3     4     1
9     3     40    1
10    3     41    1
11    4     5     1
12    4     42    1
13    4     43    1
14    5     6     1
15    5     44    1
16    5     45    1
17    6     7     2
18    6     8     1
19    8     9     1
20    9     33    1
21    9     10    1
22    9     13    1
23    10    11    1
24    10    12    2
25    11    46    1
26    11    47    1
27    11    48    1
28    13    14    1
29    13    49    1
30    13    50    1
31    14    15    1
32    14    51    1
33    14    52    1
34    15    16    1
35    15    33    1
36    15    17    1
37    17    18    1
38    17    29    1
39    17    19    1
40    19    20    1
41    19    53    1
42    19    54    1
43    20    21    1
44    20    55    1
45    20    56    1
46    21    27    1
47    21    22    2
48    22    23    1
49    22    57    1
50    23    24    2
51    23    25    1
52    25    26    1
53    25    58    1
54    25    59    1
55    26    27    1
56    26    60    1
57    26    61    1
58    27    28    1
59    27    29    1
60    28    62    1
61    28    63    1
62    28    64    1
63    29    30    1
64    29    31    1
65    31    32    1
66    31    65    1
67    31    66    1
68    32    33    1
69    32    67    1
70    32    68    1
71    33    34    1
72    34    69    1
73    34    70    1
74    34    71    1
@<TRIPOS>SUBSTRUCTURE
1   ZINC000004083606 1     RESIDUE    1   A     ZIN   1
