@<TRIPOS>MOLECULE
ZINC000000000456
41   42    0    0    0
SMALL
USER_CHARGES
NO_NAME
@<TRIPOS>ATOM
1 C1       -1.9415    -2.5571     1.7383 C.3    1 <0>      -0.1100
2 C2       -0.8231    -2.2146     0.7880 C.ar   1 <0>      -0.0800
3 C3       -0.7732    -2.8017    -0.4611 C.ar   1 <0>      -0.1100
4 C4        0.2530    -2.4884    -1.3335 C.ar   1 <0>      -0.1000
5 C5        1.2318    -1.5863    -0.9587 C.ar   1 <0>      -0.1100
6 C6        1.1873    -0.9954     0.2888 C.ar   1 <0>      -0.0600
7 C7        2.2542    -0.0121     0.6962 C.3    1 <0>      -0.1100
8 C8        0.1552    -1.3040     1.1652 C.ar   1 <0>       0.1000
9 N9        0.1069    -0.7067     2.4296 N.am   1 <0>      -0.6400
10 C10       0.1406     0.6359     2.5424 C.2    1 <0>       0.5000
11 O11       0.3135     1.3231     1.5580 O.2    1 <0>      -0.5000
12 C12      -0.0364     1.2834     3.8916 C.3    1 <0>       0.0100
13 H13      -0.6786     0.6588     4.5125 H      1 <0>       0.1600
14 C14       1.3287     1.4385     4.5654 C.3    1 <0>      -0.1400
15 C15       1.1437     2.0964     5.9358 C.3    1 <0>      -0.1300
16 C16       0.4303     3.4393     5.7543 C.3    1 <0>      -0.1500
17 C17      -0.9016     3.2101     5.0365 C.3    1 <0>      -0.0100
18 N18      -0.6548     2.6039     3.7226 N.4    1 <0>      -0.3700
19 H19      -0.0376     3.1982     3.1897 H      1 <0>       0.4300
20 C20      -1.9287     2.4557     3.0063 C.3    1 <0>      -0.0600
21 H21      -2.7369    -1.8177     1.6449 H      1 <0>       0.0700
22 H22      -2.3337    -3.5450     1.4969 H      1 <0>       0.0800
23 H23      -1.5629    -2.5562     2.7604 H      1 <0>       0.0600
24 H24      -1.5362    -3.5066    -0.7567 H      1 <0>       0.1300
25 H25       0.2902    -2.9494    -2.3094 H      1 <0>       0.1300
26 H26       2.0321    -1.3439    -1.6422 H      1 <0>       0.1300
27 H27       1.9984     0.9783     0.3196 H      1 <0>       0.0900
28 H28       2.3232     0.0193     1.7835 H      1 <0>       0.0500
29 H29       3.2125    -0.3227     0.2801 H      1 <0>       0.0700
30 H30       0.0491    -1.2589     3.2250 H      1 <0>       0.4100
31 H31       1.7859     0.4570     4.6916 H      1 <0>       0.1200
32 H32       1.9717     2.0633     3.9455 H      1 <0>       0.1000
33 H33       0.5430     1.4478     6.5734 H      1 <0>       0.0900
34 H34       2.1181     2.2606     6.3958 H      1 <0>       0.1000
35 H35       0.2452     3.8880     6.7302 H      1 <0>       0.1200
36 H36       1.0546     4.1056     5.1590 H      1 <0>       0.0900
37 H37      -1.5252     2.5439     5.6326 H      1 <0>       0.1300
38 H38      -1.4122     4.1642     4.9058 H      1 <0>       0.1400
39 H39      -2.3628     3.4398     2.8297 H      1 <0>       0.1300
40 H40      -1.7532     1.9594     2.0518 H      1 <0>       0.1300
41 H41      -2.6153     1.8580     3.6058 H      1 <0>       0.1200
@<TRIPOS>BOND
1    1    2 1
2    1   21 1
3    1   22 1
4    1   23 1
5    2    8 ar
6    2    3 ar
7    3    4 ar
8    3   24 1
9    4    5 ar
10    4   25 1
11    5    6 ar
12    5   26 1
13    6    7 1
14    6    8 ar
15    7   27 1
16    7   28 1
17    7   29 1
18    8    9 1
19    9   10 am
20    9   30 1
21   10   11 2
22   10   12 1
23   12   13 1
24   12   18 1
25   12   14 1
26   14   15 1
27   14   31 1
28   14   32 1
29   15   16 1
30   15   33 1
31   15   34 1
32   16   17 1
33   16   35 1
34   16   36 1
35   17   18 1
36   17   37 1
37   17   38 1
38   18   19 1
39   18   20 1
40   20   39 1
41   20   40 1
42   20   41 1
