@<TRIPOS>MOLECULE
ZINC000003914810
67    70    1     0     0
SMALL
USER_CHARGES
@<TRIPOS>ATOM
1      C1      0.0149    1.5834    0.0246 C.3      1 ZINC000003914810   -0.1500
2      C2      0.0021    0.0536    0.0040 C.3      1 ZINC000003914810   -0.0900
3      H3      0.5039   -0.3018   -0.8960 H        1 ZINC000003914810    0.0700
4      C4     -1.4445   -0.4444    0.0119 C.3      1 ZINC000003914810   -0.0900
5      C5     -2.1383   -0.0164   -1.2828 C.3      1 ZINC000003914810   -0.1800
6      C6     -3.5632   -0.5069   -1.2751 C.2      1 ZINC000003914810    0.4900
7      O7     -3.9848   -1.1402   -0.3223 O.co2    1 ZINC000003914810   -0.7000
8      O8     -4.2945   -0.2705   -2.2216 O.co2    1 ZINC000003914810   -0.7100
9      C9      0.7316   -0.4792    1.2389 C.3      1 ZINC000003914810   -0.0600
10     H10     0.2325   -0.1410    2.1469 H        1 ZINC000003914810    0.0800
11     C11     0.7889   -2.0268    1.2023 C.3      1 ZINC000003914810   -0.1200
12     C12     2.2925   -2.4110    1.2645 C.3      1 ZINC000003914810   -0.1200
13     C13     2.9313   -1.1893    1.9339 C.3      1 ZINC000003914810   -0.0800
14     H14     2.7198   -1.1882    3.0032 H        1 ZINC000003914810    0.0800
15     C15     4.4166   -1.0017    1.6895 C.3      1 ZINC000003914810   -0.0800
16     H16     4.6070   -0.9285    0.6187 H        1 ZINC000003914810    0.0800
17     C17     5.2049   -2.1740    2.2750 C.3      1 ZINC000003914810   -0.1100
18     C18     6.7012   -1.9405    2.0557 C.3      1 ZINC000003914810   -0.1100
19     C19     7.1238   -0.6458    2.7525 C.3      1 ZINC000003914810   -0.0700
20     H20     8.1888   -0.4779    2.5921 H        1 ZINC000003914810    0.0700
21     C21     6.8460   -0.7607    4.2528 C.3      1 ZINC000003914810   -0.1100
22     C22     7.2712    0.5328    4.9505 C.3      1 ZINC000003914810    0.1100
23     H23     8.3364    0.6991    4.7898 H        1 ZINC000003914810    0.0500
24     O24     7.0119    0.4256    6.3517 O.3      1 ZINC000003914810   -0.5700
25     C25     6.4789    1.7077    4.3738 C.3      1 ZINC000003914810   -0.1500
26     C26     6.7559    1.8224    2.8734 C.3      1 ZINC000003914810   -0.1100
27     C27     6.3300    0.5287    2.1764 C.3      1 ZINC000003914810   -0.0500
28     C28     6.6068    0.6429    0.6760 C.3      1 ZINC000003914810   -0.1500
29     C29     4.8315    0.3064    2.3810 C.3      1 ZINC000003914810   -0.0600
30     H30     4.6327    0.2032    3.4477 H        1 ZINC000003914810    0.0800
31     C31     4.0487    1.5008    1.8463 C.3      1 ZINC000003914810   -0.1500
32     C32     2.5318    1.2684    1.9473 C.3      1 ZINC000003914810    0.1200
33     H33     1.9976    2.1110    1.5083 H        1 ZINC000003914810    0.0600
34     O34     2.1538    1.1140    3.3167 O.3      1 ZINC000003914810   -0.5600
35     C35     2.1859   -0.0196    1.2328 C.3      1 ZINC000003914810   -0.0500
36     C36     2.7079    0.0301   -0.2045 C.3      1 ZINC000003914810   -0.1600
37     H37     1.0456    1.9383    0.0190 H        1 ZINC000003914810    0.0500
38     H38    -0.5048    1.9630   -0.8551 H        1 ZINC000003914810    0.0500
39     H39    -0.4868    1.9389    0.9246 H        1 ZINC000003914810    0.0500
40     H40    -1.4540   -1.5318    0.0868 H        1 ZINC000003914810    0.0600
41     H41    -1.9714   -0.0168    0.8649 H        1 ZINC000003914810    0.0600
42     H42    -2.1288    1.0710   -1.3578 H        1 ZINC000003914810    0.0600
43     H43    -1.6115   -0.4440   -2.1359 H        1 ZINC000003914810    0.0500
44     H44     0.2611   -2.4411    2.0613 H        1 ZINC000003914810    0.0600
45     H45     0.3464   -2.3959    0.2771 H        1 ZINC000003914810    0.0700
46     H46     2.4377   -3.3039    1.8726 H        1 ZINC000003914810    0.0600
47     H47     2.6953   -2.5562    0.2621 H        1 ZINC000003914810    0.0600
48     H48     5.0018   -2.2514    3.3432 H        1 ZINC000003914810    0.0600
49     H49     4.9046   -3.0975    1.7799 H        1 ZINC000003914810    0.0600
50     H50     7.2640   -2.7767    2.4706 H        1 ZINC000003914810    0.0600
51     H51     6.9036   -1.8609    0.9876 H        1 ZINC000003914810    0.0700
52     H52     5.7809   -0.9271    4.4134 H        1 ZINC000003914810    0.0800
53     H53     7.4106   -1.5977    4.6637 H        1 ZINC000003914810    0.0600
54     H54     7.2576    1.2117    6.8584 H        1 ZINC000003914810    0.3800
55     H55     5.4137    1.5416    4.5349 H        1 ZINC000003914810    0.0800
56     H56     6.7821    2.6292    4.8707 H        1 ZINC000003914810    0.0600
57     H57     6.1913    2.6593    2.4626 H        1 ZINC000003914810    0.0700
58     H58     7.8211    1.9887    2.7123 H        1 ZINC000003914810    0.0600
59     H59     7.6719    0.8090    0.5146 H        1 ZINC000003914810    0.0500
60     H60     6.3033   -0.2787    0.1793 H        1 ZINC000003914810    0.0600
61     H61     6.0422    1.4799    0.2651 H        1 ZINC000003914810    0.0600
62     H62     4.3128    2.3872    2.4231 H        1 ZINC000003914810    0.0600
63     H63     4.3158    1.6636    0.8022 H        1 ZINC000003914810    0.0800
64     H64     2.3588    1.8800    3.8701 H        1 ZINC000003914810    0.3700
65     H65     3.7713    0.2692   -0.1968 H        1 ZINC000003914810    0.0600
66     H66     2.5569   -0.9392   -0.6797 H        1 ZINC000003914810    0.0600
67     H67     2.1674    0.7957   -0.7611 H        1 ZINC000003914810    0.0600
@<TRIPOS>BOND
1     1     2     1
2     1     37    1
3     1     38    1
4     1     39    1
5     2     3     1
6     2     4     1
7     2     9     1
8     4     5     1
9     4     40    1
10    4     41    1
11    5     6     1
12    5     42    1
13    5     43    1
14    6     7     ar
15    6     8     ar
16    9     10    1
17    9     35    1
18    9     11    1
19    11    12    1
20    11    44    1
21    11    45    1
22    12    13    1
23    12    46    1
24    12    47    1
25    13    14    1
26    13    35    1
27    13    15    1
28    15    16    1
29    15    29    1
30    15    17    1
31    17    18    1
32    17    48    1
33    17    49    1
34    18    19    1
35    18    50    1
36    18    51    1
37    19    20    1
38    19    27    1
39    19    21    1
40    21    22    1
41    21    52    1
42    21    53    1
43    22    23    1
44    22    24    1
45    22    25    1
46    24    54    1
47    25    26    1
48    25    55    1
49    25    56    1
50    26    27    1
51    26    57    1
52    26    58    1
53    27    28    1
54    27    29    1
55    28    59    1
56    28    60    1
57    28    61    1
58    29    30    1
59    29    31    1
60    31    32    1
61    31    62    1
62    31    63    1
63    32    33    1
64    32    34    1
65    32    35    1
66    34    64    1
67    35    36    1
68    36    65    1
69    36    66    1
70    36    67    1
@<TRIPOS>SUBSTRUCTURE
1   ZINC000003914810 1     RESIDUE    1   A     ZIN   1
