@<TRIPOS>MOLECULE
ZINC000000538386
57    59    1     0     0
SMALL
USER_CHARGES
@<TRIPOS>ATOM
1      C1     -0.4082   -1.0250    4.8363 C.3      1 ZINC000000538386   -0.1500
2      C2      0.6895   -1.0210    3.7704 C.3      1 ZINC000000538386   -0.1600
3      C3      0.3763   -2.0581    2.7229 C.2      1 ZINC000000538386    0.5100
4      O4     -0.2613   -3.0463    3.0195 O.2      1 ZINC000000538386   -0.4900
5      N5      0.8046   -1.8875    1.4565 N.am     1 ZINC000000538386   -0.5400
6      C6      1.7927   -0.9379    1.1741 C.ar     1 ZINC000000538386    0.1800
7      C7      2.0990   -0.6230   -0.1434 C.ar     1 ZINC000000538386   -0.1800
8      C8      3.0748    0.3147   -0.4188 C.ar     1 ZINC000000538386   -0.0900
9      C9      3.7470    0.9395    0.6156 C.ar     1 ZINC000000538386   -0.1500
10     C10     3.4447    0.6279    1.9285 C.ar     1 ZINC000000538386   -0.0800
11     C11     2.4653   -0.3041    2.2107 C.ar     1 ZINC000000538386   -0.2100
12     C12     0.2357   -2.6963    0.3756 C.3      1 ZINC000000538386    0.1700
13     C13     1.3482   -3.4980   -0.3031 C.3      1 ZINC000000538386    0.0500
14     O14     1.9755   -4.3499    0.6575 O.3      1 ZINC000000538386   -0.3800
15     C15     3.0348   -5.1467    0.1238 C.3      1 ZINC000000538386    0.0300
16     C16    -0.8104   -3.6555    0.9503 C.3      1 ZINC000000538386   -0.1000
17     C17    -1.9493   -2.8459    1.5744 C.3      1 ZINC000000538386    0.0400
18     N18    -2.5576   -1.9855    0.5516 N.3      1 ZINC000000538386   -0.5400
19     C19    -3.7425   -1.2965    1.0800 C.3      1 ZINC000000538386    0.0700
20     C20    -4.4885   -0.6123   -0.0672 C.3      1 ZINC000000538386   -0.0500
21     C21    -5.7041    0.0946    0.4749 C.2      1 ZINC000000538386   -0.1700
22     C22    -5.7330    1.3588    0.8993 C.2      1 ZINC000000538386   -0.1400
23     C23    -6.9658    1.7929    1.3553 C.2      1 ZINC000000538386   -0.1300
24     C24    -7.9380    0.8812    1.3012 C.2      1 ZINC000000538386   -0.2200
25     S25    -7.3034   -0.6190    0.6377 S.3      1 ZINC000000538386    0.1000
26     C26    -1.5838   -1.0241    0.0188 C.3      1 ZINC000000538386    0.0600
27     C27    -0.4339   -1.7793   -0.6517 C.3      1 ZINC000000538386   -0.1500
28     H28    -0.4582   -2.0089    5.3027 H        1 ZINC000000538386    0.0700
29     H29    -0.1816   -0.2748    5.5940 H        1 ZINC000000538386    0.0700
30     H30    -1.3667   -0.7941    4.3716 H        1 ZINC000000538386    0.0600
31     H31     0.7395   -0.0371    3.3041 H        1 ZINC000000538386    0.1000
32     H32     1.6480   -1.2519    4.2352 H        1 ZINC000000538386    0.1100
33     H33     1.5749   -1.1112   -0.9517 H        1 ZINC000000538386    0.1400
34     H34     3.3135    0.5600   -1.4432 H        1 ZINC000000538386    0.1300
35     H35     4.5099    1.6722    0.3976 H        1 ZINC000000538386    0.1200
36     H36     3.9720    1.1171    2.7341 H        1 ZINC000000538386    0.1300
37     H37     2.2296   -0.5470    3.2363 H        1 ZINC000000538386    0.1600
38     H38     0.9231   -4.1038   -1.1033 H        1 ZINC000000538386    0.0600
39     H39     2.0874   -2.8134   -0.7192 H        1 ZINC000000538386    0.0600
40     H40     2.6447   -5.7868   -0.6676 H        1 ZINC000000538386    0.0400
41     H41     3.8090   -4.4964   -0.2834 H        1 ZINC000000538386    0.0400
42     H42     3.4587   -5.7648    0.9152 H        1 ZINC000000538386    0.0900
43     H43    -1.2054   -4.2839    0.1521 H        1 ZINC000000538386    0.0600
44     H44    -0.3490   -4.2824    1.7133 H        1 ZINC000000538386    0.1100
45     H45    -2.7028   -3.5259    1.9719 H        1 ZINC000000538386    0.0700
46     H46    -1.5559   -2.2281    2.3816 H        1 ZINC000000538386    0.0700
47     H47    -4.4002   -2.0212    1.5600 H        1 ZINC000000538386    0.0800
48     H48    -3.4325   -0.5482    1.8094 H        1 ZINC000000538386    0.0300
49     H49    -3.8308    0.1124   -0.5472 H        1 ZINC000000538386    0.0800
50     H50    -4.7985   -1.3606   -0.7966 H        1 ZINC000000538386    0.0800
51     H51    -4.8607    1.9954    0.8882 H        1 ZINC000000538386    0.1400
52     H52    -7.1281    2.7939    1.7270 H        1 ZINC000000538386    0.1400
53     H53    -8.9594    1.0409    1.6137 H        1 ZINC000000538386    0.1600
54     H54    -2.0718   -0.3809   -0.7135 H        1 ZINC000000538386    0.0800
55     H55    -1.1921   -0.4148    0.8333 H        1 ZINC000000538386    0.0300
56     H56     0.2965   -1.0658   -1.0333 H        1 ZINC000000538386    0.1000
57     H57    -0.8230   -2.3782   -1.4751 H        1 ZINC000000538386    0.0900
@<TRIPOS>BOND
1     1     2     1
2     1     28    1
3     1     29    1
4     1     30    1
5     2     3     1
6     2     31    1
7     2     32    1
8     3     4     2
9     3     5     am
10    5     6     1
11    5     12    1
12    6     11    ar
13    6     7     ar
14    7     8     ar
15    7     33    1
16    8     9     ar
17    8     34    1
18    9     10    ar
19    9     35    1
20    10    11    ar
21    10    36    1
22    11    37    1
23    12    27    1
24    12    13    1
25    12    16    1
26    13    14    1
27    13    38    1
28    13    39    1
29    14    15    1
30    15    40    1
31    15    41    1
32    15    42    1
33    16    17    1
34    16    43    1
35    16    44    1
36    17    18    1
37    17    45    1
38    17    46    1
39    18    19    1
40    18    26    1
41    19    20    1
42    19    47    1
43    19    48    1
44    20    21    1
45    20    49    1
46    20    50    1
47    21    25    1
48    21    22    2
49    22    23    1
50    22    51    1
51    23    24    2
52    23    52    1
53    24    25    1
54    24    53    1
55    26    27    1
56    26    54    1
57    26    55    1
58    27    56    1
59    27    57    1
@<TRIPOS>SUBSTRUCTURE
1   ZINC000000538386 1     RESIDUE    1   A     ZIN   1
