@<TRIPOS>MOLECULE
ZINC000000057464
30    31    1     0     0
SMALL
USER_CHARGES
@<TRIPOS>ATOM
1      C1     -0.0187    1.5258    0.0104 C.3      1 ZINC000000057464   -0.1400
2      C2      0.0021   -0.0041    0.0020 C.3      1 ZINC000000057464   -0.0800
3      C3     -1.4117   -0.5257    0.0127 C.ar     1 ZINC000000057464    0.2700
4      N4     -2.0316   -0.7586    1.1583 N.ar     1 ZINC000000057464   -0.6000
5      C5     -3.2750   -1.2169    1.1822 C.ar     1 ZINC000000057464    0.6100
6      N6     -3.8830   -1.4453    2.4037 N.pl3    1 ZINC000000057464   -0.8200
7      N7     -3.9528   -1.4623    0.0709 N.ar     1 ZINC000000057464   -0.6300
8      C8     -3.4024   -1.2549   -1.1198 C.ar     1 ZINC000000057464    0.5000
9      N9     -4.1137   -1.5125   -2.2781 N.pl3    1 ZINC000000057464   -0.8300
10     C10    -2.0853   -0.7635   -1.1834 C.ar     1 ZINC000000057464   -0.2900
11     C11    -1.4277   -0.5158   -2.4892 C.ar     1 ZINC000000057464   -0.0100
12     C12    -0.3186   -1.2705   -2.8680 C.ar     1 ZINC000000057464   -0.1000
13     C13     0.2894   -1.0364   -4.0844 C.ar     1 ZINC000000057464   -0.1000
14     C14    -0.2004   -0.0540   -4.9280 C.ar     1 ZINC000000057464   -0.0400
15     Cl15    0.5691    0.2355   -6.4570 Cl       1 ZINC000000057464   -0.0700
16     C16    -1.3019    0.6979   -4.5567 C.ar     1 ZINC000000057464   -0.1000
17     C17    -1.9201    0.4685   -3.3446 C.ar     1 ZINC000000057464   -0.1100
18     H18     1.0039    1.9031    0.0027 H        1 ZINC000000057464    0.0700
19     H19    -0.5459    1.8868   -0.8726 H        1 ZINC000000057464    0.0600
20     H20    -0.5289    1.8773    0.9072 H        1 ZINC000000057464    0.0600
21     H21     0.5123   -0.3556   -0.8948 H        1 ZINC000000057464    0.0900
22     H22     0.5293   -0.3651    0.8851 H        1 ZINC000000057464    0.0900
23     H23    -3.3997   -1.2701    3.2263 H        1 ZINC000000057464    0.4200
24     H24    -4.7926   -1.7806    2.4375 H        1 ZINC000000057464    0.4100
25     H25    -5.0224   -1.8476   -2.2248 H        1 ZINC000000057464    0.4100
26     H26    -3.7038   -1.3580   -3.1435 H        1 ZINC000000057464    0.4100
27     H27     0.0644   -2.0368   -2.2104 H        1 ZINC000000057464    0.1300
28     H28     1.1490   -1.6202   -4.3786 H        1 ZINC000000057464    0.1400
29     H29    -1.6803    1.4629   -5.2186 H        1 ZINC000000057464    0.1400
30     H30    -2.7796    1.0554   -3.0561 H        1 ZINC000000057464    0.1300
@<TRIPOS>BOND
1     1     2     1
2     1     18    1
3     1     19    1
4     1     20    1
5     2     3     1
6     2     21    1
7     2     22    1
8     3     10    ar
9     3     4     ar
10    4     5     ar
11    5     6     1
12    5     7     ar
13    6     23    1
14    6     24    1
15    7     8     ar
16    8     9     1
17    8     10    ar
18    9     25    1
19    9     26    1
20    10    11    1
21    11    17    ar
22    11    12    ar
23    12    13    ar
24    12    27    1
25    13    14    ar
26    13    28    1
27    14    15    1
28    14    16    ar
29    16    17    ar
30    16    29    1
31    17    30    1
@<TRIPOS>SUBSTRUCTURE
1   ZINC000000057464 1     RESIDUE    1   A     ZIN   1
