@<TRIPOS>MOLECULE
ZINC000000002688
44    48    1     0     0
SMALL
USER_CHARGES
@<TRIPOS>ATOM
1      O1      0.0021   -0.0041    0.0020 O.2      1 ZINC000000002688   -0.5100
2      C2     -0.0144    1.2118    0.0087 C.2      1 ZINC000000002688    0.5300
3      O3      1.1440    1.9018    0.0013 O.3      1 ZINC000000002688   -0.3400
4      C4      2.3723    1.1276   -0.0145 C.3      1 ZINC000000002688    0.0900
5      C5      2.7959    0.8695   -1.4633 C.3      1 ZINC000000002688   -0.1300
6      C6      3.0768    2.2077   -2.1516 C.3      1 ZINC000000002688    0.0800
7      H7      3.4046    2.0246   -3.1749 H        1 ZINC000000002688    0.0900
8      C8      1.7983    3.0469   -2.1730 C.3      1 ZINC000000002688   -0.1600
9      C9      2.0641    4.3911   -1.4767 C.3      1 ZINC000000002688   -0.1300
10     C10     2.4896    4.0847   -0.0304 C.3      1 ZINC000000002688   -0.1500
11     C11     3.7458    3.2133   -0.0516 C.3      1 ZINC000000002688    0.0800
12     H12     4.5615    3.7477    0.4354 H        1 ZINC000000002688    0.0900
13     C13     3.4785    1.9082    0.7007 C.3      1 ZINC000000002688   -0.1100
14     N14     4.1336    2.9204   -1.4238 N.3      1 ZINC000000002688   -0.5200
15     C15     4.5096    4.1598   -2.1349 C.3      1 ZINC000000002688    0.0100
16     C16     3.2725    5.0168   -2.1648 C.2      1 ZINC000000002688    0.3300
17     O17     3.2436    6.1066   -2.6843 O.2      1 ZINC000000002688   -0.4500
18     C18    -1.2950    1.9281    0.0187 C.2      1 ZINC000000002688   -0.2300
19     C19    -1.4745    3.2810    0.0209 C.2      1 ZINC000000002688    0.1400
20     N20    -2.7979    3.5674    0.0304 N.pl3    1 ZINC000000002688   -0.5700
21     C21    -3.5426    2.4058    0.0348 C.ar     1 ZINC000000002688    0.0800
22     C22    -4.9099    2.1518    0.0447 C.ar     1 ZINC000000002688   -0.1200
23     C23    -5.3679    0.8521    0.0475 C.ar     1 ZINC000000002688   -0.1000
24     C24    -4.4771   -0.2111    0.0409 C.ar     1 ZINC000000002688   -0.1300
25     C25    -3.1186    0.0201    0.0316 C.ar     1 ZINC000000002688   -0.0700
26     C26    -2.6423    1.3283    0.0218 C.ar     1 ZINC000000002688   -0.0600
27     H27     2.2104    0.1770    0.4936 H        1 ZINC000000002688    0.0900
28     H28     3.6977    0.2574   -1.4755 H        1 ZINC000000002688    0.0900
29     H29     1.9952    0.3502   -1.9898 H        1 ZINC000000002688    0.0800
30     H30     1.4968    3.2248   -3.2053 H        1 ZINC000000002688    0.0600
31     H31     1.0049    2.5153   -1.6476 H        1 ZINC000000002688    0.1100
32     H32     1.1932    5.0452   -1.5187 H        1 ZINC000000002688    0.1000
33     H33     2.7018    5.0174    0.4923 H        1 ZINC000000002688    0.0700
34     H34     1.6865    3.5539    0.4809 H        1 ZINC000000002688    0.1100
35     H35     3.1639    2.1337    1.7197 H        1 ZINC000000002688    0.0800
36     H36     4.3889    1.3093    0.7248 H        1 ZINC000000002688    0.1000
37     H37     5.3147    4.6682   -1.6045 H        1 ZINC000000002688    0.1200
38     H38     4.8161    3.9297   -3.1553 H        1 ZINC000000002688    0.1100
39     H39    -0.6805    4.0130    0.0161 H        1 ZINC000000002688    0.1800
40     H40    -3.1700    4.4632    0.0339 H        1 ZINC000000002688    0.4200
41     H41    -5.6121    2.9724    0.0506 H        1 ZINC000000002688    0.1200
42     H42    -6.4305    0.6594    0.0552 H        1 ZINC000000002688    0.1300
43     H43    -4.8498   -1.2248    0.0436 H        1 ZINC000000002688    0.1300
44     H44    -2.4269   -0.8093    0.0272 H        1 ZINC000000002688    0.1300
@<TRIPOS>BOND
1     1     2     2
2     2     3     1
3     2     18    1
4     3     4     1
5     4     13    1
6     4     5     1
7     4     27    1
8     5     6     1
9     5     28    1
10    5     29    1
11    6     7     1
12    6     14    1
13    6     8     1
14    8     9     1
15    8     30    1
16    8     31    1
17    9     16    1
18    9     10    1
19    9     32    1
20    10    11    1
21    10    33    1
22    10    34    1
23    11    12    1
24    11    13    1
25    11    14    1
26    13    35    1
27    13    36    1
28    14    15    1
29    15    16    1
30    15    37    1
31    15    38    1
32    16    17    2
33    18    26    1
34    18    19    2
35    19    20    1
36    19    39    1
37    20    21    1
38    20    40    1
39    21    26    ar
40    21    22    ar
41    22    23    ar
42    22    41    1
43    23    24    ar
44    23    42    1
45    24    25    ar
46    24    43    1
47    25    26    ar
48    25    44    1
@<TRIPOS>SUBSTRUCTURE
1   ZINC000000002688 1     RESIDUE    1   A     ZIN   1
