@<TRIPOS>MOLECULE
ZINC000019364219
40    39    1     0     0
SMALL
USER_CHARGES
@<TRIPOS>ATOM
1      C1     -0.6486    3.3153   -0.7894 C.3      1 ZINC000019364219   -0.1800
2      C2     -0.6421    1.8346   -0.4043 C.3      1 ZINC000019364219   -0.1500
3      C3      0.1379    1.0384   -1.4525 C.3      1 ZINC000019364219    0.0300
4      H4      1.1357    1.4632   -1.5630 H        1 ZINC000019364219    0.1600
5      C5      0.2513   -0.4202   -1.0047 C.3      1 ZINC000019364219    0.0500
6      O6     -1.0538   -0.9423   -0.7476 O.3      1 ZINC000019364219   -0.5800
7      N7     -0.5667    1.1021   -2.7399 N.4      1 ZINC000019364219   -0.5000
8      H8     -1.4577    0.6356   -2.6591 H        1 ZINC000019364219    0.4400
9      H9     -0.7141    2.0670   -2.9953 H        1 ZINC000019364219    0.4300
10     C10     0.2407    0.4400   -3.7733 C.3      1 ZINC000019364219   -0.0400
11     C11    -0.4932    0.5063   -5.1141 C.3      1 ZINC000019364219   -0.0400
12     N12     0.3141   -0.1559   -6.1475 N.4      1 ZINC000019364219   -0.5000
13     H13     1.2354    0.2550   -6.1690 H        1 ZINC000019364219    0.4300
14     H14     0.3894   -1.1397   -5.9364 H        1 ZINC000019364219    0.4400
15     C15    -0.3295    0.0162   -7.4567 C.3      1 ZINC000019364219    0.0300
16     H16    -0.4979    1.0770   -7.6422 H        1 ZINC000019364219    0.1600
17     C17     0.5763   -0.5552   -8.5493 C.3      1 ZINC000019364219   -0.1500
18     C18     1.8653    0.2658   -8.6242 C.3      1 ZINC000019364219   -0.1800
19     C19    -1.6694   -0.7223   -7.4673 C.3      1 ZINC000019364219    0.0500
20     O20    -1.4401   -2.1271   -7.3404 O.3      1 ZINC000019364219   -0.5800
21     H21     0.3764    3.6830   -0.8363 H        1 ZINC000019364219    0.0700
22     H22    -1.1226    3.4353   -1.7636 H        1 ZINC000019364219    0.0500
23     H23    -1.2043    3.8825   -0.0427 H        1 ZINC000019364219    0.0900
24     H24    -0.1681    1.7146    0.5698 H        1 ZINC000019364219    0.1200
25     H25    -1.6671    1.4668   -0.3574 H        1 ZINC000019364219    0.1000
26     H26     0.7284   -1.0055   -1.7908 H        1 ZINC000019364219    0.0700
27     H27     0.8504   -0.4757   -0.0958 H        1 ZINC000019364219    0.1000
28     H28    -1.0584   -1.8652   -0.4588 H        1 ZINC000019364219    0.4200
29     H29     1.2032    0.9439   -3.8606 H        1 ZINC000019364219    0.1600
30     H30     0.3999   -0.6024   -3.4974 H        1 ZINC000019364219    0.1500
31     H31    -1.4558    0.0024   -5.0268 H        1 ZINC000019364219    0.1500
32     H32    -0.6525    1.5487   -5.3900 H        1 ZINC000019364219    0.1600
33     H33     0.8189   -1.5917   -8.3150 H        1 ZINC000019364219    0.1000
34     H34     0.0609   -0.5106   -9.5087 H        1 ZINC000019364219    0.1200
35     H35     2.4603   -0.0687   -9.4740 H        1 ZINC000019364219    0.0900
36     H36     1.6178    1.3203   -8.7465 H        1 ZINC000019364219    0.0700
37     H37     2.4360    0.1307   -7.7054 H        1 ZINC000019364219    0.0500
38     H38    -2.2810   -0.3773   -6.6336 H        1 ZINC000019364219    0.0700
39     H39    -2.1874   -0.5220   -8.4052 H        1 ZINC000019364219    0.1000
40     H40    -2.2477   -2.6590   -7.3397 H        1 ZINC000019364219    0.4200
@<TRIPOS>BOND
1     1     2     1
2     1     21    1
3     1     22    1
4     1     23    1
5     2     3     1
6     2     24    1
7     2     25    1
8     3     4     1
9     3     5     1
10    3     7     1
11    5     6     1
12    5     26    1
13    5     27    1
14    6     28    1
15    7     8     1
16    7     9     1
17    7     10    1
18    10    11    1
19    10    29    1
20    10    30    1
21    11    12    1
22    11    31    1
23    11    32    1
24    12    13    1
25    12    14    1
26    12    15    1
27    15    16    1
28    15    17    1
29    15    19    1
30    17    18    1
31    17    33    1
32    17    34    1
33    18    35    1
34    18    36    1
35    18    37    1
36    19    20    1
37    19    38    1
38    19    39    1
39    20    40    1
@<TRIPOS>SUBSTRUCTURE
1   ZINC000019364219 1     RESIDUE    1   A     ZIN   1
