@<TRIPOS>MOLECULE
ZINC000003794711
36    36    1     0     0
SMALL
USER_CHARGES
@<TRIPOS>ATOM
1      C1     -0.0187    1.5258    0.0104 C.3      1 ZINC000003794711   -0.1500
2      C2      0.0021   -0.0041    0.0020 C.3      1 ZINC000003794711   -0.1200
3      C3      0.7421   -0.5109    1.2415 C.3      1 ZINC000003794711   -0.1200
4      C4      0.7628   -2.0407    1.2331 C.3      1 ZINC000003794711    0.0600
5      N5      1.4733   -2.5274    2.4232 N.3      1 ZINC000003794711   -0.5200
6      C6      2.7238   -1.7856    2.6296 C.3      1 ZINC000003794711    0.0200
7      C7      3.3620   -2.2169    3.9520 C.3      1 ZINC000003794711    0.0800
8      H8      2.6816   -1.9944    4.7740 H        1 ZINC000003794711    0.0800
9      O9      4.5886   -1.5091    4.1430 O.3      1 ZINC000003794711   -0.5700
10     C10     3.6402   -3.7221    3.9119 C.3      1 ZINC000003794711    0.0800
11     H11     4.3507   -3.9400    3.1145 H        1 ZINC000003794711    0.0600
12     O12     4.1853   -4.1405    5.1648 O.3      1 ZINC000003794711   -0.5600
13     C13     2.3297   -4.4685    3.6476 C.3      1 ZINC000003794711    0.1300
14     H14     1.6331   -4.2814    4.4648 H        1 ZINC000003794711    0.0800
15     O15     2.5897   -5.8705    3.5539 O.3      1 ZINC000003794711   -0.5600
16     C16     1.7214   -3.9720    2.3340 C.3      1 ZINC000003794711    0.0900
17     H17     2.4126   -4.1719    1.5153 H        1 ZINC000003794711    0.0600
18     C18     0.4011   -4.7008    2.0760 C.3      1 ZINC000003794711    0.0900
19     O19    -0.4625   -4.5351    3.2025 O.3      1 ZINC000003794711   -0.5600
20     H20     1.0039    1.9031    0.0027 H        1 ZINC000003794711    0.0500
21     H21    -0.5459    1.8868   -0.8726 H        1 ZINC000003794711    0.0600
22     H22    -0.5289    1.8773    0.9072 H        1 ZINC000003794711    0.0600
23     H23    -1.0205   -0.3814    0.0098 H        1 ZINC000003794711    0.0600
24     H24     0.5123   -0.3556   -0.8948 H        1 ZINC000003794711    0.0600
25     H25     1.7647   -0.1336    1.2338 H        1 ZINC000003794711    0.0600
26     H26     0.2319   -0.1594    2.1383 H        1 ZINC000003794711    0.0700
27     H27    -0.2598   -2.4180    1.2409 H        1 ZINC000003794711    0.0800
28     H28     1.2730   -2.3923    0.3363 H        1 ZINC000003794711    0.0400
29     H29     3.4103   -1.9958    1.8094 H        1 ZINC000003794711    0.0400
30     H30     2.5113   -0.7170    2.6604 H        1 ZINC000003794711    0.0900
31     H31     4.4872   -0.5480    4.1755 H        1 ZINC000003794711    0.3900
32     H32     5.0157   -3.7034    5.3981 H        1 ZINC000003794711    0.3900
33     H33     2.9793   -6.2525    4.3523 H        1 ZINC000003794711    0.3900
34     H34    -0.0759   -4.2852    1.1884 H        1 ZINC000003794711    0.0500
35     H35     0.5961   -5.7618    1.9206 H        1 ZINC000003794711    0.0600
36     H36    -1.3200   -4.9720    3.1083 H        1 ZINC000003794711    0.3800
@<TRIPOS>BOND
1     1     2     1
2     1     20    1
3     1     21    1
4     1     22    1
5     2     3     1
6     2     23    1
7     2     24    1
8     3     4     1
9     3     25    1
10    3     26    1
11    4     5     1
12    4     27    1
13    4     28    1
14    5     16    1
15    5     6     1
16    6     7     1
17    6     29    1
18    6     30    1
19    7     8     1
20    7     9     1
21    7     10    1
22    9     31    1
23    10    11    1
24    10    12    1
25    10    13    1
26    12    32    1
27    13    14    1
28    13    15    1
29    13    16    1
30    15    33    1
31    16    17    1
32    16    18    1
33    18    19    1
34    18    34    1
35    18    35    1
36    19    36    1
@<TRIPOS>SUBSTRUCTURE
1   ZINC000003794711 1     RESIDUE    1   A     ZIN   1
