@<TRIPOS>MOLECULE
ZINC000002519740
39    39    1     0     0
SMALL
USER_CHARGES
@<TRIPOS>ATOM
1      C1     -0.0187    1.5258    0.0104 C.3      1 ZINC000002519740   -0.1300
2      C2      0.0021   -0.0041    0.0020 C.3      1 ZINC000002519740   -0.0600
3      C3      0.7421   -0.5109    1.2415 C.3      1 ZINC000002519740   -0.1400
4      C4     -1.4117   -0.5257    0.0127 C.ar     1 ZINC000002519740   -0.0700
5      C5     -2.2591   -0.2048    1.0555 C.ar     1 ZINC000002519740   -0.1100
6      C6     -3.5565   -0.6827    1.0656 C.ar     1 ZINC000002519740   -0.1200
7      C7     -4.0092   -1.4826    0.0327 C.ar     1 ZINC000002519740   -0.1100
8      C8     -3.1658   -1.8064   -1.0123 C.ar     1 ZINC000002519740   -0.0900
9      C9     -3.6598   -2.6783   -2.1378 C.3      1 ZINC000002519740   -0.0600
10     C10    -4.0933   -4.0352   -1.5792 C.3      1 ZINC000002519740   -0.1400
11     C11    -4.8513   -2.0036   -2.8204 C.3      1 ZINC000002519740   -0.1500
12     C12    -1.8651   -1.3238   -1.0275 C.ar     1 ZINC000002519740    0.1000
13     O13    -1.0335   -1.6409   -2.0545 O.3      1 ZINC000002519740   -0.3200
14     C14    -1.0269   -0.7599   -3.1796 C.3      1 ZINC000002519740    0.3100
15     O15    -0.3146    0.4332   -2.8462 O.3      1 ZINC000002519740   -0.7700
16     P16    -0.1089    1.6496   -3.8806 P.3      1 ZINC000002519740    2.2200
17     O17    -1.4843    2.1150   -4.4085 O.2      1 ZINC000002519740   -1.1100
18     O18     0.7641    1.1769   -5.0645 O.3      1 ZINC000002519740   -1.1100
19     O19     0.6205    2.8738   -3.1312 O.3      1 ZINC000002519740   -0.8900
20     H20     1.0039    1.9031    0.0027 H        1 ZINC000002519740    0.0500
21     H21    -0.5459    1.8868   -0.8726 H        1 ZINC000002519740    0.0600
22     H22    -0.5289    1.8773    0.9072 H        1 ZINC000002519740    0.0400
23     H23     0.5123   -0.3556   -0.8948 H        1 ZINC000002519740    0.1000
24     H24     0.7568   -1.6008    1.2356 H        1 ZINC000002519740    0.0500
25     H25     1.7647   -0.1336    1.2338 H        1 ZINC000002519740    0.0500
26     H26     0.2319   -0.1594    2.1383 H        1 ZINC000002519740    0.0500
27     H27    -1.9078    0.4196    1.8636 H        1 ZINC000002519740    0.1200
28     H28    -4.2173   -0.4310    1.8820 H        1 ZINC000002519740    0.1200
29     H29    -5.0229   -1.8549    0.0431 H        1 ZINC000002519740    0.1200
30     H30    -2.8595   -2.8231   -2.8635 H        1 ZINC000002519740    0.0800
31     H31    -4.4506   -4.6658   -2.3933 H        1 ZINC000002519740    0.0600
32     H32    -3.2444   -4.5158   -1.0929 H        1 ZINC000002519740    0.0500
33     H33    -4.8936   -3.8904   -0.8535 H        1 ZINC000002519740    0.0500
34     H34    -4.5425   -1.0370   -3.2183 H        1 ZINC000002519740    0.0600
35     H35    -5.2087   -2.6343   -3.6344 H        1 ZINC000002519740    0.0600
36     H36    -5.6516   -1.8589   -2.0947 H        1 ZINC000002519740    0.0500
37     H37    -0.5396   -1.2505   -4.0223 H        1 ZINC000002519740    0.1000
38     H38    -2.0523   -0.5075   -3.4495 H        1 ZINC000002519740    0.0500
39     H39     0.7769    3.6434   -3.6955 H        1 ZINC000002519740    0.4100
@<TRIPOS>BOND
1     1     2     1
2     1     20    1
3     1     21    1
4     1     22    1
5     2     3     1
6     2     4     1
7     2     23    1
8     3     24    1
9     3     25    1
10    3     26    1
11    4     12    ar
12    4     5     ar
13    5     6     ar
14    5     27    1
15    6     7     ar
16    6     28    1
17    7     8     ar
18    7     29    1
19    8     9     1
20    8     12    ar
21    9     10    1
22    9     11    1
23    9     30    1
24    10    31    1
25    10    32    1
26    10    33    1
27    11    34    1
28    11    35    1
29    11    36    1
30    12    13    1
31    13    14    1
32    14    15    1
33    14    37    1
34    14    38    1
35    15    16    1
36    16    17    2
37    16    18    1
38    16    19    1
39    19    39    1
@<TRIPOS>SUBSTRUCTURE
1   ZINC000002519740 1     RESIDUE    1   A     ZIN   1
