@<TRIPOS>MOLECULE
ZINC000001530940
48    49    1     0     0
SMALL
USER_CHARGES
@<TRIPOS>ATOM
1      C1     -0.0187    1.5258    0.0104 C.3      1 ZINC000001530940   -0.1500
2      C2      0.0021   -0.0041    0.0020 C.3      1 ZINC000001530940   -0.1200
3      C3      0.7182   -0.4975   -1.2568 C.3      1 ZINC000001530940   -0.1200
4      C4      0.7390   -2.0273   -1.2652 C.3      1 ZINC000001530940    0.0600
5      O5      1.4078   -2.4882   -2.4409 O.3      1 ZINC000001530940   -0.3100
6      C6      1.5135   -3.8309   -2.6031 C.ar     1 ZINC000001530940    0.1700
7      C7      0.9767   -4.6885   -1.6487 C.ar     1 ZINC000001530940   -0.2200
8      C8      1.0808   -6.0465   -1.8079 C.ar     1 ZINC000001530940   -0.0200
9      C9      1.7285   -6.5694   -2.9340 C.ar     1 ZINC000001530940   -0.2100
10     C10     1.8424   -8.0229   -3.1098 C.2      1 ZINC000001530940    0.4000
11     O11     1.3751   -8.7728   -2.2788 O.2      1 ZINC000001530940   -0.4600
12     C12     2.5399   -8.5829   -4.3226 C.3      1 ZINC000001530940   -0.1700
13     C13     2.5197  -10.1115   -4.2622 C.3      1 ZINC000001530940    0.0600
14     N14     3.1996  -10.6574   -5.4445 N.3      1 ZINC000001530940   -0.5400
15     C15     2.7596   -9.9734   -6.6672 C.3      1 ZINC000001530940    0.0500
16     C16     3.5904  -10.4644   -7.8550 C.3      1 ZINC000001530940   -0.1200
17     C17     3.4149  -11.9782   -8.0033 C.3      1 ZINC000001530940   -0.1200
18     C18     3.8344  -12.6629   -6.6996 C.3      1 ZINC000001530940   -0.1200
19     C19     2.9966  -12.1082   -5.5453 C.3      1 ZINC000001530940    0.0600
20     C20     2.2667   -5.7014   -3.8922 C.ar     1 ZINC000001530940   -0.0300
21     C21     2.1530   -4.3451   -3.7259 C.ar     1 ZINC000001530940   -0.1700
22     H22     1.0039    1.9031    0.0027 H        1 ZINC000001530940    0.0600
23     H23    -0.5459    1.8868   -0.8726 H        1 ZINC000001530940    0.0600
24     H24    -0.5289    1.8773    0.9072 H        1 ZINC000001530940    0.0600
25     H25     0.5293   -0.3651    0.8851 H        1 ZINC000001530940    0.0700
26     H26    -1.0205   -0.3814    0.0098 H        1 ZINC000001530940    0.0700
27     H27     0.1910   -0.1364   -2.1398 H        1 ZINC000001530940    0.0800
28     H28     1.7408   -0.1202   -1.2645 H        1 ZINC000001530940    0.0800
29     H29     1.2661   -2.3884   -0.3821 H        1 ZINC000001530940    0.0700
30     H30    -0.2836   -2.4046   -1.2575 H        1 ZINC000001530940    0.0700
31     H31     0.4774   -4.2842   -0.7806 H        1 ZINC000001530940    0.1300
32     H32     0.6643   -6.7116   -1.0659 H        1 ZINC000001530940    0.1400
33     H33     2.0265   -8.2481   -5.2240 H        1 ZINC000001530940    0.1000
34     H34     3.5723   -8.2336   -4.3416 H        1 ZINC000001530940    0.1100
35     H35     3.0332  -10.4464   -3.3609 H        1 ZINC000001530940    0.0800
36     H36     1.4873  -10.4608   -4.2432 H        1 ZINC000001530940    0.0400
37     H37     1.7066  -10.1907   -6.8459 H        1 ZINC000001530940    0.0300
38     H38     2.8936   -8.8980   -6.5500 H        1 ZINC000001530940    0.0800
39     H39     3.2530   -9.9680   -8.7649 H        1 ZINC000001530940    0.0700
40     H40     4.6420  -10.2350   -7.6831 H        1 ZINC000001530940    0.0700
41     H41     2.3697  -12.2049   -8.2138 H        1 ZINC000001530940    0.0600
42     H42     4.0387  -12.3388   -8.8212 H        1 ZINC000001530940    0.0600
43     H43     3.6715  -13.7374   -6.7840 H        1 ZINC000001530940    0.0700
44     H44     4.8899  -12.4682   -6.5095 H        1 ZINC000001530940    0.0700
45     H45     3.3027  -12.5834   -4.6133 H        1 ZINC000001530940    0.0800
46     H46     1.9424  -12.3155   -5.7293 H        1 ZINC000001530940    0.0300
47     H47     2.7675   -6.0997   -4.7622 H        1 ZINC000001530940    0.1400
48     H48     2.5675   -3.6749   -4.4645 H        1 ZINC000001530940    0.1400
@<TRIPOS>BOND
1     1     2     1
2     1     22    1
3     1     23    1
4     1     24    1
5     2     3     1
6     2     25    1
7     2     26    1
8     3     4     1
9     3     27    1
10    3     28    1
11    4     5     1
12    4     29    1
13    4     30    1
14    5     6     1
15    6     21    ar
16    6     7     ar
17    7     8     ar
18    7     31    1
19    8     9     ar
20    8     32    1
21    9     10    1
22    9     20    ar
23    10    11    2
24    10    12    1
25    12    13    1
26    12    33    1
27    12    34    1
28    13    14    1
29    13    35    1
30    13    36    1
31    14    19    1
32    14    15    1
33    15    16    1
34    15    37    1
35    15    38    1
36    16    17    1
37    16    39    1
38    16    40    1
39    17    18    1
40    17    41    1
41    17    42    1
42    18    19    1
43    18    43    1
44    18    44    1
45    19    45    1
46    19    46    1
47    20    21    ar
48    20    47    1
49    21    48    1
@<TRIPOS>SUBSTRUCTURE
1   ZINC000001530940 1     RESIDUE    1   A     ZIN   1
