@<TRIPOS>MOLECULE
ZINC000004074875
78    83    1     0     0
SMALL
USER_CHARGES
@<TRIPOS>ATOM
1      C1      1.0471    1.8288   -0.3137 C.3      1 ZINC000004074875   -0.1500
2      C2      0.9003    0.3059   -0.2992 C.3      1 ZINC000004074875    0.0800
3      O3      1.4498   -0.2140    0.9132 O.3      1 ZINC000004074875   -0.2900
4      C4      1.3994   -1.5550    1.0848 C.2      1 ZINC000004074875    0.5000
5      N5      0.8943   -2.4032    0.2278 N.2      1 ZINC000004074875   -0.5300
6      C6      1.0085   -3.6665    0.7182 C.ar     1 ZINC000004074875    0.0700
7      C7      0.6427   -4.9218    0.2291 C.ar     1 ZINC000004074875   -0.0400
8      C8      0.8938   -6.0555    0.9744 C.ar     1 ZINC000004074875   -0.1300
9      C9      1.5080   -5.9668    2.2090 C.ar     1 ZINC000004074875   -0.0600
10     C10     1.8838   -4.7233    2.7200 C.ar     1 ZINC000004074875   -0.1100
11     C11     2.5393   -4.6290    4.0367 C.2      1 ZINC000004074875    0.5200
12     O12     2.0229   -3.9838    4.9276 O.2      1 ZINC000004074875   -0.4800
13     O13     3.7112   -5.2582    4.2526 O.3      1 ZINC000004074875   -0.3400
14     C14     4.2455   -5.2120    5.6020 C.3      1 ZINC000004074875    0.2700
15     H15     4.2390   -4.1825    5.9602 H        1 ZINC000004074875    0.1500
16     C16     5.6805   -5.7426    5.6008 C.3      1 ZINC000004074875   -0.1900
17     O17     3.4264   -6.0334    6.4752 O.3      1 ZINC000004074875   -0.3300
18     C18     3.3628   -7.3477    6.1949 C.2      1 ZINC000004074875    0.6000
19     O19     3.9435   -7.7903    5.2246 O.2      1 ZINC000004074875   -0.5300
20     O20     2.6559   -8.1716    6.9894 O.3      1 ZINC000004074875   -0.3300
21     C21     2.6314   -9.5772    6.6262 C.3      1 ZINC000004074875    0.1000
22     C22     3.7964  -10.2998    7.3055 C.3      1 ZINC000004074875   -0.1400
23     C23     3.7706  -11.7810    6.9228 C.3      1 ZINC000004074875   -0.1200
24     C24     2.4492  -12.4027    7.3791 C.3      1 ZINC000004074875   -0.1300
25     C25     1.2842  -11.6800    6.6999 C.3      1 ZINC000004074875   -0.1200
26     C26     1.3100  -10.1989    7.0826 C.3      1 ZINC000004074875   -0.1200
27     C27     1.6332   -3.5656    1.9718 C.ar     1 ZINC000004074875    0.1000
28     N28     1.8734   -2.2240    2.1758 N.pl3    1 ZINC000004074875   -0.4700
29     C29     2.5165   -1.6261    3.3485 C.3      1 ZINC000004074875    0.1300
30     C30     3.9762   -1.3920    3.0563 C.ar     1 ZINC000004074875   -0.1200
31     C31     4.8883   -2.4159    3.2387 C.ar     1 ZINC000004074875   -0.1300
32     C32     6.2263   -2.2073    2.9727 C.ar     1 ZINC000004074875   -0.1000
33     C33     6.6580   -0.9620    2.5188 C.ar     1 ZINC000004074875   -0.0400
34     C34     8.0939   -0.7318    2.2308 C.ar     1 ZINC000004074875   -0.0400
35     C35     9.0610   -1.0857    3.1674 C.ar     1 ZINC000004074875   -0.1100
36     C36    10.3972   -0.8700    2.8949 C.ar     1 ZINC000004074875   -0.1400
37     C37    10.7834   -0.3024    1.6930 C.ar     1 ZINC000004074875   -0.1200
38     C38     9.8366    0.0543    0.7533 C.ar     1 ZINC000004074875   -0.1000
39     C39     8.4861   -0.1611    1.0098 C.ar     1 ZINC000004074875    0.0500
40     C40     7.4657    0.2201    0.0029 C.2      1 ZINC000004074875    0.0700
41     N41     6.1490    0.0791    0.1148 N.2      1 ZINC000004074875   -0.3500
42     N42     5.6164    0.5288   -0.9698 N.pl3    1 ZINC000004074875   -0.1900
43     N43     6.5472    0.9454   -1.7554 N.2      1 ZINC000004074875   -0.1900
44     N44     7.6902    0.7743   -1.1839 N.2      1 ZINC000004074875   -0.3700
45     C45     5.7342    0.0660    2.3364 C.ar     1 ZINC000004074875    0.0100
46     C46     4.3981   -0.1557    2.6011 C.ar     1 ZINC000004074875   -0.1000
47     H47     2.1029    2.0927   -0.2507 H        1 ZINC000004074875    0.0800
48     H48     0.6281    2.2254   -1.2385 H        1 ZINC000004074875    0.0800
49     H49     0.5151    2.2532    0.5377 H        1 ZINC000004074875    0.0600
50     H50    -0.1554    0.0421   -0.3622 H        1 ZINC000004074875    0.0700
51     H51     1.4324   -0.1185   -1.1506 H        1 ZINC000004074875    0.0800
52     H52     0.1620   -5.0057   -0.7344 H        1 ZINC000004074875    0.1400
53     H53     0.6069   -7.0227    0.5887 H        1 ZINC000004074875    0.1400
54     H54     1.6976   -6.8630    2.7811 H        1 ZINC000004074875    0.1300
55     H55     5.6869   -6.7720    5.2425 H        1 ZINC000004074875    0.1000
56     H56     6.2954   -5.1259    4.9452 H        1 ZINC000004074875    0.0900
57     H57     6.0815   -5.7079    6.6137 H        1 ZINC000004074875    0.0900
58     H58     2.7244   -9.6747    5.5446 H        1 ZINC000004074875    0.0900
59     H59     4.7379   -9.8569    6.9804 H        1 ZINC000004074875    0.0700
60     H60     3.7034  -10.2023    8.3871 H        1 ZINC000004074875    0.0700
61     H61     3.8637  -11.8784    5.8412 H        1 ZINC000004074875    0.0700
62     H62     4.6006  -12.2958    7.4067 H        1 ZINC000004074875    0.0700
63     H63     2.4308  -13.4579    7.1065 H        1 ZINC000004074875    0.0700
64     H64     2.3562  -12.3052    8.4608 H        1 ZINC000004074875    0.0700
65     H65     1.3772  -11.7775    5.6182 H        1 ZINC000004074875    0.0700
66     H66     0.3428  -12.1230    7.0250 H        1 ZINC000004074875    0.0700
67     H67     1.2170  -10.1014    8.1642 H        1 ZINC000004074875    0.0800
68     H68     0.4800   -9.6841    6.5986 H        1 ZINC000004074875    0.0800
69     H69     2.0357   -0.6761    3.5817 H        1 ZINC000004074875    0.1000
70     H70     2.4200   -2.3007    4.1993 H        1 ZINC000004074875    0.1200
71     H71     4.5527   -3.3803    3.5904 H        1 ZINC000004074875    0.1100
72     H72     6.9376   -3.0072    3.1162 H        1 ZINC000004074875    0.1100
73     H73     8.7661   -1.5286    4.1072 H        1 ZINC000004074875    0.1200
74     H74    11.1451   -1.1453    3.6237 H        1 ZINC000004074875    0.1200
75     H75    11.8310   -0.1374    1.4892 H        1 ZINC000004074875    0.1200
76     H76    10.1446    0.4971   -0.1824 H        1 ZINC000004074875    0.1300
77     H77     6.0631    1.0329    1.9853 H        1 ZINC000004074875    0.1200
78     H78     3.6814    0.6399    2.4598 H        1 ZINC000004074875    0.1200
@<TRIPOS>BOND
1     1     2     1
2     1     47    1
3     1     48    1
4     1     49    1
5     2     3     1
6     2     50    1
7     2     51    1
8     3     4     1
9     4     28    1
10    4     5     2
11    5     6     1
12    6     27    ar
13    6     7     ar
14    7     8     ar
15    7     52    1
16    8     9     ar
17    8     53    1
18    9     10    ar
19    9     54    1
20    10    11    1
21    10    27    ar
22    11    12    2
23    11    13    1
24    13    14    1
25    14    15    1
26    14    16    1
27    14    17    1
28    16    55    1
29    16    56    1
30    16    57    1
31    17    18    1
32    18    19    2
33    18    20    1
34    20    21    1
35    21    26    1
36    21    22    1
37    21    58    1
38    22    23    1
39    22    59    1
40    22    60    1
41    23    24    1
42    23    61    1
43    23    62    1
44    24    25    1
45    24    63    1
46    24    64    1
47    25    26    1
48    25    65    1
49    25    66    1
50    26    67    1
51    26    68    1
52    27    28    1
53    28    29    1
54    29    30    1
55    29    69    1
56    29    70    1
57    30    46    ar
58    30    31    ar
59    31    32    ar
60    31    71    1
61    32    33    ar
62    32    72    1
63    33    34    1
64    33    45    ar
65    34    39    ar
66    34    35    ar
67    35    36    ar
68    35    73    1
69    36    37    ar
70    36    74    1
71    37    38    ar
72    37    75    1
73    38    39    ar
74    38    76    1
75    39    40    1
76    40    44    1
77    40    41    2
78    41    42    1
79    42    43    1
80    43    44    2
81    45    46    ar
82    45    77    1
83    46    78    1
@<TRIPOS>SUBSTRUCTURE
1   ZINC000004074875 1     RESIDUE    1   A     ZIN   1
