@<TRIPOS>MOLECULE
ZINC000001530820
50    49    1     0     0
SMALL
USER_CHARGES
@<TRIPOS>ATOM
1      C1     -0.0589    0.9047    1.3140 C.3      1 ZINC000001530820   -0.0500
2      N2     -0.6124   -0.4557    1.3466 N.4      1 ZINC000001530820   -0.2700
3      C3     -0.1254   -1.1539    2.5438 C.3      1 ZINC000001530820   -0.0500
4      C4     -2.0793   -0.3868    1.3826 C.3      1 ZINC000001530820   -0.0500
5      C5     -0.1858   -1.1867    0.1460 C.3      1 ZINC000001530820    0.0000
6      C6      1.3412   -1.1664    0.0521 C.3      1 ZINC000001530820    0.0300
7      O7      1.9033   -1.9512    1.1367 O.3      1 ZINC000001530820   -0.3600
8      C8      3.2416   -2.0351    1.1982 C.2      1 ZINC000001530820    0.4700
9      O9      3.9208   -1.4715    0.3731 O.2      1 ZINC000001530820   -0.4900
10     C10     3.8969   -2.8323    2.2964 C.3      1 ZINC000001530820   -0.1100
11     C11     5.4171   -2.7657    2.1375 C.3      1 ZINC000001530820   -0.1100
12     C12     6.0724   -3.5629    3.2357 C.2      1 ZINC000001530820    0.4700
13     O13     5.3932   -4.1266    4.0608 O.2      1 ZINC000001530820   -0.4900
14     O14     7.4107   -3.6469    3.2972 O.3      1 ZINC000001530820   -0.3600
15     C15     7.9728   -4.4317    4.3818 C.3      1 ZINC000001530820    0.0300
16     C16     9.4998   -4.4113    4.2879 C.3      1 ZINC000001530820    0.0000
17     N17     9.9896   -3.0552    4.5690 N.4      1 ZINC000001530820   -0.2700
18     C18     9.4609   -2.6018    5.8624 C.3      1 ZINC000001530820   -0.0500
19     C19    11.4578   -3.0649    4.6163 C.3      1 ZINC000001530820   -0.0500
20     C20     9.5399   -2.1427    3.5092 C.3      1 ZINC000001530820   -0.0500
21     H21     1.0296    0.8536    1.2873 H        1 ZINC000001530820    0.1200
22     H22    -0.4202    1.4228    0.4257 H        1 ZINC000001530820    0.1300
23     H23    -0.3754    1.4471    2.2049 H        1 ZINC000001530820    0.1300
24     H24    -0.6198   -0.7490    3.4269 H        1 ZINC000001530820    0.1200
25     H25    -0.3468   -2.2178    2.4592 H        1 ZINC000001530820    0.1200
26     H26     0.9517   -1.0129    2.6338 H        1 ZINC000001530820    0.1200
27     H27    -2.4406    0.1313    0.4942 H        1 ZINC000001530820    0.1200
28     H28    -2.4899   -1.3962    1.4068 H        1 ZINC000001530820    0.1200
29     H29    -2.3958    0.1557    2.2735 H        1 ZINC000001530820    0.1300
30     H30    -0.5324   -2.2184    0.2065 H        1 ZINC000001530820    0.1400
31     H31    -0.6105   -0.7120   -0.7385 H        1 ZINC000001530820    0.1500
32     H32     1.6522   -1.5907   -0.9025 H        1 ZINC000001530820    0.1200
33     H33     1.6961   -0.1384    0.1256 H        1 ZINC000001530820    0.1000
34     H34     3.6142   -2.4182    3.2643 H        1 ZINC000001530820    0.1200
35     H35     3.5704   -3.8705    2.2361 H        1 ZINC000001530820    0.1300
36     H36     5.6997   -3.1798    1.1696 H        1 ZINC000001530820    0.1300
37     H37     5.7436   -1.7275    2.1978 H        1 ZINC000001530820    0.1200
38     H38     7.6618   -4.0073    5.3364 H        1 ZINC000001530820    0.1000
39     H39     7.6179   -5.4597    4.3083 H        1 ZINC000001530820    0.1200
40     H40     9.9178   -5.1067    5.0158 H        1 ZINC000001530820    0.1500
41     H41     9.8061   -4.7076    3.2847 H        1 ZINC000001530820    0.1400
42     H42     9.7946   -3.2789    6.6487 H        1 ZINC000001530820    0.1300
43     H43     9.8244   -1.5956    6.0709 H        1 ZINC000001530820    0.1300
44     H44     8.3715   -2.5946    5.8272 H        1 ZINC000001530820    0.1200
45     H45    11.8501   -3.4013    3.6566 H        1 ZINC000001530820    0.1200
46     H46    11.8212   -2.0586    4.8249 H        1 ZINC000001530820    0.1300
47     H47    11.7915   -3.7419    5.4027 H        1 ZINC000001530820    0.1200
48     H48     8.4583   -2.0212    3.5691 H        1 ZINC000001530820    0.1300
49     H49    10.0220   -1.1734    3.6356 H        1 ZINC000001530820    0.1200
50     H50     9.8056   -2.5566    2.5365 H        1 ZINC000001530820    0.1200
@<TRIPOS>BOND
1     1     2     1
2     1     21    1
3     1     22    1
4     1     23    1
5     2     3     1
6     2     4     1
7     2     5     1
8     3     24    1
9     3     25    1
10    3     26    1
11    4     27    1
12    4     28    1
13    4     29    1
14    5     6     1
15    5     30    1
16    5     31    1
17    6     7     1
18    6     32    1
19    6     33    1
20    7     8     1
21    8     9     2
22    8     10    1
23    10    11    1
24    10    34    1
25    10    35    1
26    11    12    1
27    11    36    1
28    11    37    1
29    12    13    2
30    12    14    1
31    14    15    1
32    15    16    1
33    15    38    1
34    15    39    1
35    16    17    1
36    16    40    1
37    16    41    1
38    17    18    1
39    17    19    1
40    17    20    1
41    18    42    1
42    18    43    1
43    18    44    1
44    19    45    1
45    19    46    1
46    19    47    1
47    20    48    1
48    20    49    1
49    20    50    1
@<TRIPOS>SUBSTRUCTURE
1   ZINC000001530820 1     RESIDUE    1   A     ZIN   1
