@<TRIPOS>MOLECULE
ZINC000001481815
41    44    1     0     0
SMALL
USER_CHARGES
@<TRIPOS>ATOM
1      O1      0.3985    0.6784   -0.8722 O.co2    1 ZINC000001481815   -0.6900
2      C2     -0.0817    1.1035    0.1694 C.2      1 ZINC000001481815    0.5200
3      O3      0.4960    0.9148    1.2311 O.co2    1 ZINC000001481815   -0.6900
4      C4     -1.3526    1.8477    0.1447 C.ar     1 ZINC000001481815   -0.1300
5      C5     -1.9005    2.3396    1.3341 C.ar     1 ZINC000001481815   -0.0700
6      C6     -3.0882    3.0345    1.3069 C.ar     1 ZINC000001481815   -0.1200
7      C7     -3.7442    3.2477    0.0983 C.ar     1 ZINC000001481815    0.1400
8      N8     -4.9484    3.9529    0.0748 N.pl3    1 ZINC000001481815   -0.3400
9      N9     -5.2510    5.1266    0.7841 N.2      1 ZINC000001481815   -0.2500
10     C10    -6.4875    5.4539    0.4753 C.2      1 ZINC000001481815    0.3000
11     C11    -7.2209    6.6324    0.9976 C.ar     1 ZINC000001481815   -0.1900
12     C12    -8.5338    6.8722    0.5995 C.ar     1 ZINC000001481815   -0.0200
13     C13    -9.2123    7.9703    1.0889 C.ar     1 ZINC000001481815   -0.2800
14     C14    -8.5927    8.8347    1.9737 C.ar     1 ZINC000001481815   -0.0600
15     C15    -7.2899    8.6063    2.3751 C.ar     1 ZINC000001481815   -0.2700
16     C16    -6.5992    7.5047    1.8966 C.ar     1 ZINC000001481815    0.2900
17     O17    -5.3188    7.2792    2.2903 O.3      1 ZINC000001481815   -0.6900
18     N18    -6.9776    4.5544   -0.3858 N.2      1 ZINC000001481815   -0.5300
19     C19    -6.0634    3.6431   -0.6456 C.2      1 ZINC000001481815    0.3000
20     C20    -6.2213    2.4849   -1.5498 C.ar     1 ZINC000001481815   -0.0400
21     C21    -5.8466    1.2092   -1.1274 C.ar     1 ZINC000001481815   -0.0700
22     C22    -5.9963    0.1319   -1.9759 C.ar     1 ZINC000001481815   -0.1300
23     C23    -6.5172    0.3111   -3.2457 C.ar     1 ZINC000001481815   -0.1000
24     C24    -6.8916    1.5700   -3.6758 C.ar     1 ZINC000001481815   -0.1500
25     C25    -6.7533    2.6613   -2.8333 C.ar     1 ZINC000001481815    0.1500
26     O26    -7.1209    3.8986   -3.2547 O.3      1 ZINC000001481815   -0.4900
27     C27    -3.2024    2.7600   -1.0871 C.ar     1 ZINC000001481815   -0.1300
28     C28    -2.0119    2.0695   -1.0690 C.ar     1 ZINC000001481815   -0.0700
29     H29    -1.3924    2.1739    2.2726 H        1 ZINC000001481815    0.1300
30     H30    -3.5119    3.4146    2.2247 H        1 ZINC000001481815    0.1300
31     H31    -9.0204    6.2000   -0.0917 H        1 ZINC000001481815    0.1000
32     H32   -10.2303    8.1555    0.7796 H        1 ZINC000001481815    0.0900
33     H33    -9.1293    9.6920    2.3524 H        1 ZINC000001481815    0.0900
34     H34    -6.8114    9.2849    3.0658 H        1 ZINC000001481815    0.1000
35     H35    -5.4394    1.0653   -0.1375 H        1 ZINC000001481815    0.1300
36     H36    -5.7056   -0.8553   -1.6483 H        1 ZINC000001481815    0.1300
37     H37    -6.6313   -0.5374   -3.9041 H        1 ZINC000001481815    0.1300
38     H38    -7.2966    1.7026   -4.6681 H        1 ZINC000001481815    0.1300
39     H39    -8.0430    4.1206   -3.0662 H        1 ZINC000001481815    0.4000
40     H40    -3.7147    2.9272   -2.0231 H        1 ZINC000001481815    0.1200
41     H41    -1.5921    1.6914   -1.9893 H        1 ZINC000001481815    0.1300
@<TRIPOS>BOND
1     1     2     ar
2     2     3     ar
3     2     4     1
4     4     28    ar
5     4     5     ar
6     5     6     ar
7     5     29    1
8     6     7     ar
9     6     30    1
10    7     8     1
11    7     27    ar
12    8     19    1
13    8     9     1
14    9     10    2
15    10    11    1
16    10    18    1
17    11    16    ar
18    11    12    ar
19    12    13    ar
20    12    31    1
21    13    14    ar
22    13    32    1
23    14    15    ar
24    14    33    1
25    15    16    ar
26    15    34    1
27    16    17    1
28    18    19    2
29    19    20    1
30    20    25    ar
31    20    21    ar
32    21    22    ar
33    21    35    1
34    22    23    ar
35    22    36    1
36    23    24    ar
37    23    37    1
38    24    25    ar
39    24    38    1
40    25    26    1
41    26    39    1
42    27    28    ar
43    27    40    1
44    28    41    1
@<TRIPOS>SUBSTRUCTURE
1   ZINC000001481815 1     RESIDUE    1   A     ZIN   1
