@<TRIPOS>MOLECULE
ZINC000003831429
35    37    1     0     0
SMALL
USER_CHARGES
@<TRIPOS>ATOM
1      C1     -0.0187    1.5258    0.0104 C.3      1 ZINC000003831429   -0.1900
2      C2      0.0021   -0.0041    0.0020 C.3      1 ZINC000003831429    0.0300
3      H3      0.5293   -0.3651    0.8851 H        1 ZINC000003831429    0.1400
4      N4      0.6897   -0.4778   -1.2066 N.4      1 ZINC000003831429   -0.6400
5      H5      1.6363   -0.1286   -1.2138 H        1 ZINC000003831429    0.4400
6      H6      0.7033   -1.4867   -1.2121 H        1 ZINC000003831429    0.4300
7      H7      0.2017   -0.1436   -2.0240 H        1 ZINC000003831429    0.4300
8      C8     -1.4333   -0.5336    0.0129 C.3      1 ZINC000003831429   -0.0700
9      C9     -2.1733   -0.0268   -1.2266 C.3      1 ZINC000003831429   -0.1200
10     C10    -3.6087   -0.5564   -1.2158 C.3      1 ZINC000003831429   -0.0800
11     C11    -4.3248   -0.0630    0.0430 C.3      1 ZINC000003831429   -0.1100
12     C12    -3.5848   -0.5698    1.2825 C.3      1 ZINC000003831429   -0.0900
13     C13    -3.5641   -2.0996    1.2741 C.3      1 ZINC000003831429   -0.1100
14     C14    -2.8479   -2.5931    0.0153 C.3      1 ZINC000003831429   -0.0800
15     C15    -3.5879   -2.0862   -1.2242 C.3      1 ZINC000003831429   -0.1200
16     C16    -1.4126   -2.0635    0.0045 C.3      1 ZINC000003831429   -0.1200
17     C17    -2.1494   -0.0402    1.2717 C.3      1 ZINC000003831429   -0.1000
18     H18     1.0039    1.9031    0.0027 H        1 ZINC000003831429    0.0800
19     H19    -0.5459    1.8868   -0.8726 H        1 ZINC000003831429    0.0800
20     H20    -0.5289    1.8773    0.9072 H        1 ZINC000003831429    0.1100
21     H21    -2.1881    1.0631   -1.2207 H        1 ZINC000003831429    0.0800
22     H22    -1.6631   -0.3783   -2.1234 H        1 ZINC000003831429    0.0600
23     H23    -4.1359   -0.1953   -2.0988 H        1 ZINC000003831429    0.0800
24     H24    -4.3396    1.0269    0.0490 H        1 ZINC000003831429    0.0700
25     H25    -5.3474   -0.4403    0.0508 H        1 ZINC000003831429    0.0700
26     H26    -4.0950   -0.2183    2.1793 H        1 ZINC000003831429    0.0800
27     H27    -3.0369   -2.4607    2.1572 H        1 ZINC000003831429    0.0700
28     H28    -4.5867   -2.4769    1.2819 H        1 ZINC000003831429    0.0700
29     H29    -2.8332   -3.6829    0.0093 H        1 ZINC000003831429    0.0800
30     H30    -4.6105   -2.4635   -1.2165 H        1 ZINC000003831429    0.0700
31     H31    -3.0777   -2.4378   -2.1210 H        1 ZINC000003831429    0.0600
32     H32    -0.9024   -2.4150   -0.8923 H        1 ZINC000003831429    0.0600
33     H33    -0.8854   -2.4246    0.8875 H        1 ZINC000003831429    0.0800
34     H34    -1.6223   -0.4013    2.1547 H        1 ZINC000003831429    0.0700
35     H35    -2.1642    1.0497    1.2777 H        1 ZINC000003831429    0.0800
@<TRIPOS>BOND
1     1     2     1
2     1     18    1
3     1     19    1
4     1     20    1
5     2     3     1
6     2     4     1
7     2     8     1
8     4     5     1
9     4     6     1
10    4     7     1
11    8     16    1
12    8     17    1
13    8     9     1
14    9     10    1
15    9     21    1
16    9     22    1
17    10    15    1
18    10    11    1
19    10    23    1
20    11    12    1
21    11    24    1
22    11    25    1
23    12    13    1
24    12    17    1
25    12    26    1
26    13    14    1
27    13    27    1
28    13    28    1
29    14    15    1
30    14    16    1
31    14    29    1
32    15    30    1
33    15    31    1
34    16    32    1
35    16    33    1
36    17    34    1
37    17    35    1
@<TRIPOS>SUBSTRUCTURE
1   ZINC000003831429 1     RESIDUE    1   A     ZIN   1
