@<TRIPOS>MOLECULE
ZINC000001530977
43    45    1     0     0
SMALL
USER_CHARGES
@<TRIPOS>ATOM
1      C1     -0.0178    1.4648    0.0101 C.3      1 ZINC000001530977    0.0200
2      N2      0.0021   -0.0041    0.0020 N.3      1 ZINC000001530977   -0.5300
3      C3      0.7062   -0.5275    1.1802 C.3      1 ZINC000001530977    0.0800
4      C4      2.1628   -0.1488    1.1043 C.2      1 ZINC000001530977   -0.1300
5      C5      2.7301    0.5078    2.1065 C.2      1 ZINC000001530977   -0.1200
6      C6      4.1588    0.8793    2.0321 C.ar     1 ZINC000001530977   -0.0600
7      C7      4.9118    0.5453    0.9058 C.ar     1 ZINC000001530977   -0.1100
8      C8      6.2450    0.8949    0.8425 C.ar     1 ZINC000001530977   -0.1200
9      C9      6.8356    1.5747    1.8928 C.ar     1 ZINC000001530977   -0.1200
10     C10     6.0946    1.9084    3.0124 C.ar     1 ZINC000001530977   -0.1200
11     C11     4.7589    1.5704    3.0853 C.ar     1 ZINC000001530977   -0.1100
12     C12    -1.3597   -0.5486   -0.0825 C.3      1 ZINC000001530977    0.0900
13     C13    -1.9618   -0.1908   -1.4168 C.ar     1 ZINC000001530977   -0.0600
14     C14    -1.6371   -0.9384   -2.5613 C.ar     1 ZINC000001530977   -0.0300
15     C15    -0.7524   -2.0284   -2.4944 C.ar     1 ZINC000001530977   -0.0900
16     C16    -0.4615   -2.7297   -3.6238 C.ar     1 ZINC000001530977   -0.1200
17     C17    -1.0277   -2.3836   -4.8495 C.ar     1 ZINC000001530977   -0.1100
18     C18    -1.8881   -1.3342   -4.9526 C.ar     1 ZINC000001530977   -0.1100
19     C19    -2.2134   -0.5867   -3.8077 C.ar     1 ZINC000001530977   -0.0500
20     C20    -3.0979    0.5029   -3.8746 C.ar     1 ZINC000001530977   -0.1100
21     C21    -3.3900    1.2037   -2.7447 C.ar     1 ZINC000001530977   -0.1200
22     C22    -2.8275    0.8548   -1.5186 C.ar     1 ZINC000001530977   -0.1100
23     H23     1.0047    1.8421    0.0024 H        1 ZINC000001530977    0.0700
24     H24    -0.5450    1.8259   -0.8730 H        1 ZINC000001530977    0.0700
25     H25    -0.5280    1.8163    0.9069 H        1 ZINC000001530977    0.0300
26     H26     0.2673   -0.1040    2.0837 H        1 ZINC000001530977    0.0400
27     H27     0.6139   -1.6133    1.2060 H        1 ZINC000001530977    0.0900
28     H28     2.7446   -0.4123    0.2334 H        1 ZINC000001530977    0.1200
29     H29     2.1483    0.7713    2.9775 H        1 ZINC000001530977    0.1200
30     H30     4.4521    0.0141    0.0855 H        1 ZINC000001530977    0.1200
31     H31     6.8289    0.6371   -0.0287 H        1 ZINC000001530977    0.1200
32     H32     7.8796    1.8458    1.8385 H        1 ZINC000001530977    0.1200
33     H33     6.5617    2.4385    3.8293 H        1 ZINC000001530977    0.1200
34     H34     4.1815    1.8317    3.9597 H        1 ZINC000001530977    0.1200
35     H35    -1.3244   -1.6331    0.0212 H        1 ZINC000001530977    0.0900
36     H36    -1.9698   -0.1268    0.7163 H        1 ZINC000001530977    0.0500
37     H37    -0.3055   -2.3078   -1.5517 H        1 ZINC000001530977    0.1300
38     H38     0.2187   -3.5669   -3.5696 H        1 ZINC000001530977    0.1200
39     H39    -0.7797   -2.9566   -5.7307 H        1 ZINC000001530977    0.1200
40     H40    -2.3186   -1.0772   -5.9091 H        1 ZINC000001530977    0.1300
41     H41    -3.5435    0.7832   -4.8176 H        1 ZINC000001530977    0.1300
42     H42    -4.0699    2.0410   -2.7989 H        1 ZINC000001530977    0.1200
43     H43    -3.0761    1.4272   -0.6371 H        1 ZINC000001530977    0.1200
@<TRIPOS>BOND
1     1     2     1
2     1     23    1
3     1     24    1
4     1     25    1
5     2     3     1
6     2     12    1
7     3     4     1
8     3     26    1
9     3     27    1
10    4     5     2
11    4     28    1
12    5     6     1
13    5     29    1
14    6     11    ar
15    6     7     ar
16    7     8     ar
17    7     30    1
18    8     9     ar
19    8     31    1
20    9     10    ar
21    9     32    1
22    10    11    ar
23    10    33    1
24    11    34    1
25    12    13    1
26    12    35    1
27    12    36    1
28    13    22    ar
29    13    14    ar
30    14    19    ar
31    14    15    ar
32    15    16    ar
33    15    37    1
34    16    17    ar
35    16    38    1
36    17    18    ar
37    17    39    1
38    18    19    ar
39    18    40    1
40    19    20    ar
41    20    21    ar
42    20    41    1
43    21    22    ar
44    21    42    1
45    22    43    1
@<TRIPOS>SUBSTRUCTURE
1   ZINC000001530977 1     RESIDUE    1   A     ZIN   1
