@<TRIPOS>MOLECULE
ZINC000000049153
35   36    0    0    0
SMALL
USER_CHARGES
NO_NAME
@<TRIPOS>ATOM
1 C1       -0.2500     1.1212    -0.1698 C.3    1 <0>      -0.1200
2 C2       -0.0859    -0.3639     0.0262 C.2    1 <0>       0.0700
3 C3       -0.1476    -1.2375    -0.9832 C.2    1 <0>      -0.1900
4 C4       -0.3825    -0.9016    -2.4334 C.3    1 <0>      -0.0600
5 C5        0.9606    -0.6571    -3.1242 C.3    1 <0>       0.0800
6 O6        0.7378    -0.3386    -4.4994 O.3    1 <0>      -0.5700
7 S7        0.0941    -2.8515    -0.3190 S.3    1 <0>       0.4700
8 C8        0.2542    -2.1912     1.2499 C.2    1 <0>      -0.0300
9 N9        0.1357    -0.9071     1.2063 N.2    1 <0>      -0.3200
10 C10       0.2324    -0.0892     2.4179 C.3    1 <0>       0.1200
11 C11      -1.1436     0.1141     2.9978 C.ar   1 <0>      -0.3400
12 C12      -1.8485     1.2766     2.7567 C.ar   1 <0>       0.2200
13 N13      -3.0569     1.4212     3.2827 N.ar   1 <0>      -0.5500
14 C14      -3.5904     0.4749     4.0283 C.ar   1 <0>       0.4000
15 C15      -4.9672     0.6848     4.6040 C.3    1 <0>      -0.1000
16 N16      -2.9538    -0.6502     4.2842 N.ar   1 <0>      -0.5700
17 C17      -1.7402    -0.8711     3.7879 C.ar   1 <0>       0.4700
18 N18      -1.0737    -2.0550     4.0589 N.pl3  1 <0>      -0.8400
19 H19       0.7313     1.5852    -0.2693 H      1 <0>       0.1100
20 H20      -0.8326     1.3065    -1.0721 H      1 <0>       0.1100
21 H21      -0.7672     1.5463     0.6904 H      1 <0>       0.0900
22 H22      -0.8958    -1.7310    -2.9199 H      1 <0>       0.1100
23 H23      -0.9959    -0.0033    -2.5035 H      1 <0>       0.1200
24 H24       1.4738     0.1722    -2.6377 H      1 <0>       0.0600
25 H25       1.5740    -1.5554    -3.0541 H      1 <0>       0.0500
26 H26       1.5477    -0.1708    -5.0004 H      1 <0>       0.4000
27 H27       0.4331    -2.7653     2.1470 H      1 <0>       0.2400
28 H28       0.8635    -0.5953     3.1485 H      1 <0>       0.1300
29 H29       0.6685     0.8783     2.1693 H      1 <0>       0.1400
30 H30      -1.4206     2.0588     2.1473 H      1 <0>       0.1700
31 H31      -5.7145     0.3093     3.9049 H      1 <0>       0.1000
32 H32      -5.0516     0.1480     5.5490 H      1 <0>       0.0900
33 H33      -5.1314     1.7488     4.7746 H      1 <0>       0.1000
34 H34      -1.4922    -2.7308     4.6149 H      1 <0>       0.4200
35 H35      -0.1886    -2.2081     3.6928 H      1 <0>       0.4000
@<TRIPOS>BOND
1    1    2 1
2    1   19 1
3    1   20 1
4    1   21 1
5    2    9 1
6    2    3 2
7    3    4 1
8    3    7 1
9    4    5 1
10    4   22 1
11    4   23 1
12    5    6 1
13    5   24 1
14    5   25 1
15    6   26 1
16    7    8 1
17    8    9 2
18    8   27 1
19    9   10 1
20   10   11 1
21   10   28 1
22   10   29 1
23   11   17 ar
24   11   12 ar
25   12   13 ar
26   12   30 1
27   13   14 ar
28   14   15 1
29   14   16 ar
30   15   31 1
31   15   32 1
32   15   33 1
33   16   17 ar
34   17   18 1
35   18   34 1
36   18   35 1
