@<TRIPOS>MOLECULE
ZINC000003813003
32    34    1     0     0
SMALL
USER_CHARGES
@<TRIPOS>ATOM
1      O1      0.2388    0.0418   -0.0135 O.2      1 ZINC000003813003   -0.5000
2      C2      0.1204    1.2486    0.0077 C.2      1 ZINC000003813003    0.5100
3      C3     -1.2582    1.8501   -0.0237 C.3      1 ZINC000003813003    0.0200
4      N4     -1.4049    2.6342   -1.2493 N.2      1 ZINC000003813003   -0.4600
5      C5     -0.6849    3.6748   -1.4800 C.2      1 ZINC000003813003    0.2700
6      C6     -0.9078    4.3931   -2.7559 C.ar     1 ZINC000003813003   -0.0600
7      C7     -2.1228    5.0344   -2.9955 C.ar     1 ZINC000003813003   -0.0700
8      C8     -2.3244    5.7024   -4.1859 C.ar     1 ZINC000003813003   -0.1100
9      C9     -1.3246    5.7372   -5.1416 C.ar     1 ZINC000003813003   -0.0900
10     C10    -0.1171    5.1032   -4.9113 C.ar     1 ZINC000003813003   -0.1100
11     C11     0.0996    4.4359   -3.7216 C.ar     1 ZINC000003813003   -0.0100
12     Cl12    1.6157    3.6409   -3.4333 Cl       1 ZINC000003813003   -0.0600
13     C13     0.3438    4.2046   -0.5713 C.ar     1 ZINC000003813003   -0.1300
14     C14     0.4305    5.5976   -0.4285 C.ar     1 ZINC000003813003    0.0100
15     C15     1.3693    6.1575    0.4071 C.ar     1 ZINC000003813003   -0.0600
16     N16     1.4501    7.6287    0.5485 N.pl3    1 ZINC000003813003    0.0300
17     O17     0.6857    8.3433   -0.0748 O.2      1 ZINC000003813003   -0.1500
18     O18     2.2810    8.1247    1.2882 O.2      1 ZINC000003813003   -0.1500
19     C19     2.2382    5.3453    1.1163 C.ar     1 ZINC000003813003   -0.0100
20     C20     2.1663    3.9757    0.9858 C.ar     1 ZINC000003813003   -0.1400
21     C21     1.2206    3.3896    0.1423 C.ar     1 ZINC000003813003    0.2300
22     N22     1.2132    2.0063    0.0636 N.am     1 ZINC000003813003   -0.6600
23     H23    -2.0038    1.0552   -0.0074 H        1 ZINC000003813003    0.1400
24     H24    -1.3937    2.4978    0.8425 H        1 ZINC000003813003    0.1000
25     H25    -2.9046    5.0080   -2.2509 H        1 ZINC000003813003    0.1400
26     H26    -3.2652    6.1989   -4.3723 H        1 ZINC000003813003    0.1400
27     H27    -1.4878    6.2615   -6.0715 H        1 ZINC000003813003    0.1400
28     H28     0.6594    5.1337   -5.6614 H        1 ZINC000003813003    0.1400
29     H29    -0.2448    6.2356   -0.9792 H        1 ZINC000003813003    0.1600
30     H30     2.9738    5.7864    1.7726 H        1 ZINC000003813003    0.1700
31     H31     2.8480    3.3491    1.5417 H        1 ZINC000003813003    0.1600
32     H32     2.0716    1.5551    0.0424 H        1 ZINC000003813003    0.4200
@<TRIPOS>BOND
1     1     2     2
2     2     22    am
3     2     3     1
4     3     4     1
5     3     23    1
6     3     24    1
7     4     5     2
8     5     6     1
9     5     13    1
10    6     11    ar
11    6     7     ar
12    7     8     ar
13    7     25    1
14    8     9     ar
15    8     26    1
16    9     10    ar
17    9     27    1
18    10    11    ar
19    10    28    1
20    11    12    1
21    13    21    ar
22    13    14    ar
23    14    15    ar
24    14    29    1
25    15    16    1
26    15    19    ar
27    16    17    2
28    16    18    2
29    19    20    ar
30    19    30    1
31    20    21    ar
32    20    31    1
33    21    22    1
34    22    32    1
@<TRIPOS>SUBSTRUCTURE
1   ZINC000003813003 1     RESIDUE    1   A     ZIN   1
