@<TRIPOS>MOLECULE
ZINC000004468780
46    48    1     0     0
SMALL
USER_CHARGES
@<TRIPOS>ATOM
1      C1     -4.0786   -4.6346    0.1014 C.3      1 ZINC000004468780    0.0300
2      O2     -2.8039   -3.9894    0.0704 O.3      1 ZINC000004468780   -0.1800
3      N3     -2.8746   -2.5754    0.0450 N.2      1 ZINC000004468780   -0.2700
4      C4     -1.7804   -1.8688    0.0154 C.2      1 ZINC000004468780    0.1800
5      C5     -0.4629   -2.5385    0.1234 C.2      1 ZINC000004468780    0.5400
6      O6     -0.3965   -3.7518    0.1259 O.2      1 ZINC000004468780   -0.5100
7      N7      0.6617   -1.8019    0.2187 N.am     1 ZINC000004468780   -0.6800
8      C8      1.9524   -2.4602    0.4355 C.3      1 ZINC000004468780    0.1200
9      H9      1.9689   -3.4893    0.0766 H        1 ZINC000004468780    0.1500
10     C10     2.4900   -2.2981    1.8472 C.2      1 ZINC000004468780    0.5300
11     O11     2.2156   -2.7921    2.9204 O.2      1 ZINC000004468780   -0.4400
12     N12     3.3908   -1.3899    1.4342 N.am     1 ZINC000004468780   -0.5600
13     C13     4.1969   -0.3814    1.9899 C.2      1 ZINC000004468780    0.1000
14     C14     4.6901   -0.5098    3.3708 C.2      1 ZINC000004468780    0.5200
15     O15     5.3109    0.4096    3.8866 O.co2    1 ZINC000004468780   -0.6600
16     O16     4.4792   -1.5360    4.0027 O.co2    1 ZINC000004468780   -0.6500
17     C17     4.5130    0.6858    1.2687 C.2      1 ZINC000004468780   -0.1900
18     C18     5.3326    1.7356    1.9738 C.3      1 ZINC000004468780    0.1400
19     O19     5.5275    2.8715    1.0906 O.3      1 ZINC000004468780   -0.3800
20     C20     6.3267    3.8558    1.5310 C.2      1 ZINC000004468780    0.4500
21     C21     6.5760    5.0666    0.6691 C.3      1 ZINC000004468780   -0.1400
22     O22     6.8463    3.7711    2.6186 O.2      1 ZINC000004468780   -0.5100
23     C23     4.1606    0.9811   -0.1521 C.3      1 ZINC000004468780   -0.0200
24     S24     2.7401    0.0019   -0.7271 S.3      1 ZINC000004468780   -0.2400
25     C25     3.1471   -1.6318   -0.0260 C.3      1 ZINC000004468780    0.1300
26     H26     3.9280   -2.1720   -0.5612 H        1 ZINC000004468780    0.1500
27     C27    -1.8531   -0.3987   -0.1258 C.2      1 ZINC000004468780    0.1400
28     C28    -3.0218    0.2719   -0.1053 C.2      1 ZINC000004468780   -0.2300
29     S29    -2.6774    1.9885   -0.3023 S.3      1 ZINC000004468780    0.0800
30     C30    -0.9549    1.6364   -0.3960 C.2      1 ZINC000004468780    0.3700
31     N31     0.0453    2.5792   -0.5645 N.pl3    1 ZINC000004468780   -0.8100
32     N32    -0.7666    0.3594   -0.2770 N.2      1 ZINC000004468780   -0.5400
33     H33    -3.9384   -5.7154    0.1196 H        1 ZINC000004468780    0.1000
34     H34    -4.6216   -4.3236    0.9939 H        1 ZINC000004468780    0.0500
35     H35    -4.6481   -4.3569   -0.7855 H        1 ZINC000004468780    0.0500
36     H36     0.6165   -0.8358    0.1438 H        1 ZINC000004468780    0.4300
37     H37     4.8104    2.0605    2.8737 H        1 ZINC000004468780    0.1000
38     H38     6.3014    1.3173    2.2469 H        1 ZINC000004468780    0.0900
39     H39     5.6299    5.5676    0.4639 H        1 ZINC000004468780    0.0900
40     H40     7.2445    5.7521    1.1900 H        1 ZINC000004468780    0.1000
41     H41     7.0338    4.7560   -0.2700 H        1 ZINC000004468780    0.0900
42     H42     3.9203    2.0403   -0.2439 H        1 ZINC000004468780    0.1200
43     H43     5.0214    0.7597   -0.7831 H        1 ZINC000004468780    0.0900
44     H44    -4.0014   -0.1676    0.0113 H        1 ZINC000004468780    0.1900
45     H45    -0.1820    3.5190   -0.6414 H        1 ZINC000004468780    0.4200
46     H46     0.9733    2.2998   -0.6057 H        1 ZINC000004468780    0.4200
@<TRIPOS>BOND
1     1     2     1
2     1     33    1
3     1     34    1
4     1     35    1
5     2     3     1
6     3     4     2
7     4     5     1
8     4     27    1
9     5     6     2
10    5     7     am
11    7     8     1
12    7     36    1
13    8     9     1
14    8     25    1
15    8     10    1
16    10    11    2
17    10    12    am
18    12    25    1
19    12    13    1
20    13    14    1
21    13    17    2
22    14    15    ar
23    14    16    ar
24    17    18    1
25    17    23    1
26    18    19    1
27    18    37    1
28    18    38    1
29    19    20    1
30    20    21    1
31    20    22    2
32    21    39    1
33    21    40    1
34    21    41    1
35    23    24    1
36    23    42    1
37    23    43    1
38    24    25    1
39    25    26    1
40    27    32    1
41    27    28    2
42    28    29    1
43    28    44    1
44    29    30    1
45    30    31    1
46    30    32    2
47    31    45    1
48    31    46    1
@<TRIPOS>SUBSTRUCTURE
1   ZINC000004468780 1     RESIDUE    1   A     ZIN   1
