@<TRIPOS>MOLECULE
ZINC000100016084
59   63    0    0    0
SMALL
USER_CHARGES
NO_NAME
@<TRIPOS>ATOM
1 O1        0.5000     0.4979     0.3737 O.2    1 <0>      -0.4700
2 C2        0.1199     1.6428     0.3055 C.2    1 <0>       0.4300
3 O3        0.9897     2.6503     0.4794 O.3    1 <0>      -0.3300
4 C4        2.3708     2.2901     0.7460 C.3    1 <0>       0.0700
5 H5        2.4013     1.3353     1.2709 H      1 <0>       0.1100
6 C6        3.1295     2.1670    -0.5787 C.3    1 <0>      -0.1600
7 C7        3.2057     3.5556    -1.2370 C.3    1 <0>       0.0300
8 H8        3.6182     3.5126    -2.2450 H      1 <0>       0.1500
9 C9        1.7820     4.1627    -1.2087 C.3    1 <0>      -0.1400
10 C10       1.6956     4.9035     0.1427 C.3    1 <0>      -0.1300
11 C11       3.0749     4.6764     0.8077 C.3    1 <0>       0.0400
12 H12       3.3889     5.5271     1.4125 H      1 <0>       0.1500
13 C13       3.0195     3.3703     1.6165 C.3    1 <0>      -0.1400
14 N14       4.0005     4.4236    -0.3397 N.4    1 <0>      -0.2700
15 C15       5.2208     3.7427     0.1182 C.3    1 <0>      -0.0300
16 C16       6.3446     4.2997    -0.7939 C.3    1 <0>      -0.1400
17 C17       5.9039     5.7772    -0.9724 C.3    1 <0>      -0.1400
18 C18       4.3621     5.6792    -1.0059 C.3    1 <0>      -0.0100
19 C19      -1.3295     1.9397     0.0189 C.3    1 <0>       0.2500
20 O20      -1.7265     3.1107     0.7354 O.3    1 <0>      -0.5300
21 C21      -1.5126     2.1691    -1.4593 C.ar   1 <0>      -0.0900
22 C22      -0.8414     1.3750    -2.3702 C.ar   1 <0>      -0.1200
23 C23      -1.0093     1.5854    -3.7261 C.ar   1 <0>      -0.1200
24 C24      -1.8487     2.5895    -4.1710 C.ar   1 <0>      -0.1000
25 C25      -2.5205     3.3831    -3.2601 C.ar   1 <0>      -0.1200
26 C26      -2.3559     3.1699    -1.9042 C.ar   1 <0>      -0.0800
27 C27      -2.1771     0.7725     0.4549 C.ar   1 <0>      -0.1300
28 C28      -3.0822     0.9235     1.4888 C.ar   1 <0>      -0.1000
29 C29      -3.8597    -0.1472     1.8887 C.ar   1 <0>      -0.1200
30 C30      -3.7325    -1.3688     1.2545 C.ar   1 <0>      -0.1000
31 C31      -2.8281    -1.5196     0.2199 C.ar   1 <0>      -0.1200
32 C32      -2.0536    -0.4477    -0.1828 C.ar   1 <0>      -0.0800
33 H33       4.1370     1.7965    -0.3896 H      1 <0>       0.1100
34 H34       2.6025     1.4781    -1.2388 H      1 <0>       0.1200
35 H35       1.6515     4.8627    -2.0340 H      1 <0>       0.0900
36 H36       1.0319     3.3734    -1.2573 H      1 <0>       0.1200
37 H37       1.5227     5.9676    -0.0183 H      1 <0>       0.0900
38 H38       0.9030     4.4783     0.7584 H      1 <0>       0.1300
39 H39       2.4092     3.5180     2.5075 H      1 <0>       0.1200
40 H40       4.0284     3.0772     1.9067 H      1 <0>       0.1100
41 H41       5.4227     3.9851     1.1615 H      1 <0>       0.1300
42 H42       5.1258     2.6645    -0.0110 H      1 <0>       0.1400
43 H43       7.3142     4.2389    -0.2997 H      1 <0>       0.1100
44 H44       6.3633     3.7798    -1.7517 H      1 <0>       0.1000
45 H45       6.2333     6.3823    -0.1278 H      1 <0>       0.1000
46 H46       6.2848     6.1824    -1.9099 H      1 <0>       0.1100
47 H47       4.0121     5.6673    -2.0381 H      1 <0>       0.1300
48 H48       3.9236     6.5231    -0.4733 H      1 <0>       0.1300
49 H49      -1.6352     3.0344     1.6950 H      1 <0>       0.3900
50 H50      -0.1857     0.5904    -2.0226 H      1 <0>       0.1200
51 H51      -0.4845     0.9654    -4.4379 H      1 <0>       0.1300
52 H52      -1.9794     2.7544    -5.2304 H      1 <0>       0.1300
53 H53      -3.1761     4.1678    -3.6077 H      1 <0>       0.1300
54 H54      -2.8808     3.7898    -1.1925 H      1 <0>       0.1400
55 H55      -3.1815     1.8780     1.9844 H      1 <0>       0.1300
56 H56      -4.5662    -0.0293     2.6970 H      1 <0>       0.1300
57 H57      -4.3394    -2.2055     1.5674 H      1 <0>       0.1300
58 H58      -2.7285    -2.4741    -0.2754 H      1 <0>       0.1300
59 H59      -1.3471    -0.5656    -0.9911 H      1 <0>       0.1200
@<TRIPOS>BOND
1    1    2 2
2    2    3 1
3    2   19 1
4    3    4 1
5    4    5 1
6    4   13 1
7    4    6 1
8    6    7 1
9    6   33 1
10    6   34 1
11    7    8 1
12    7   14 1
13    7    9 1
14    9   10 1
15    9   35 1
16    9   36 1
17   10   11 1
18   10   37 1
19   10   38 1
20   11   12 1
21   11   13 1
22   11   14 1
23   13   39 1
24   13   40 1
25   14   18 1
26   14   15 1
27   15   16 1
28   15   41 1
29   15   42 1
30   16   17 1
31   16   43 1
32   16   44 1
33   17   18 1
34   17   45 1
35   17   46 1
36   18   47 1
37   18   48 1
38   19   20 1
39   19   21 1
40   19   27 1
41   20   49 1
42   21   26 ar
43   21   22 ar
44   22   23 ar
45   22   50 1
46   23   24 ar
47   23   51 1
48   24   25 ar
49   24   52 1
50   25   26 ar
51   25   53 1
52   26   54 1
53   27   32 ar
54   27   28 ar
55   28   29 ar
56   28   55 1
57   29   30 ar
58   29   56 1
59   30   31 ar
60   30   57 1
61   31   32 ar
62   31   58 1
63   32   59 1
