@<TRIPOS>MOLECULE
ZINC000000896755
40   42    0    0    0
SMALL
USER_CHARGES
NO_NAME
@<TRIPOS>ATOM
1 C1        0.2628    -2.8188     2.4975 C.3    1 <0>      -0.1100
2 C2        0.0919    -2.0642     1.2043 C.ar   1 <0>      -0.0700
3 C3        0.1613    -2.7340    -0.0012 C.ar   1 <0>      -0.1100
4 C4        0.0047    -2.0421    -1.1885 C.ar   1 <0>      -0.1000
5 C5       -0.2214    -0.6782    -1.1727 C.ar   1 <0>      -0.1200
6 C6       -0.2919    -0.0022     0.0298 C.ar   1 <0>      -0.1000
7 C7       -0.1412    -0.6949     1.2239 C.ar   1 <0>       0.1300
8 N8       -0.2121    -0.0135     2.4432 N.am   1 <0>      -0.5800
9 C9       -1.4064     0.1275     3.0546 C.2    1 <0>       0.5800
10 O10      -2.4223    -0.2737     2.5196 O.2    1 <0>      -0.5100
11 C11      -1.4661     0.7727     4.3778 C.ar   1 <0>      -0.2200
12 C12      -2.6705     1.2004     4.9308 C.ar   1 <0>       0.0900
13 C13      -2.6744     1.7937     6.1761 C.ar   1 <0>      -0.7300
14 S14      -4.1951     2.3367     6.8811 S.o2   1 <0>       2.7000
15 N15      -4.4659     1.4165     8.2310 N.am   1 <0>      -1.2400
16 O16      -3.9743     3.6640     7.3379 O.2    1 <0>      -0.9500
17 O17      -5.2135     1.9942     5.9511 O.2    1 <0>      -0.9500
18 C18      -1.4902     1.9657     6.8778 C.ar   1 <0>       0.1100
19 Cl19     -1.5187     2.7110     8.4454 Cl     1 <0>      -0.0200
20 C20      -0.2864     1.5475     6.3385 C.ar   1 <0>      -0.1900
21 C21      -0.2658     0.9535     5.0897 C.ar   1 <0>       0.3000
22 N22       0.9168     0.5250     4.4973 N.pl3  1 <0>      -0.7400
23 C23       1.0110     0.5281     3.0352 C.3    1 <0>       0.3800
24 H24       1.8641    -0.0764     2.7272 H      1 <0>       0.1100
25 C25       1.2037     1.9639     2.5430 C.3    1 <0>      -0.1800
26 H26      -0.7162    -3.0960     2.8885 H      1 <0>       0.0700
27 H27       0.8504    -3.7191     2.3179 H      1 <0>       0.0700
28 H28       0.7777    -2.1873     3.2215 H      1 <0>       0.0600
29 H29       0.3385    -3.7992    -0.0170 H      1 <0>       0.1300
30 H30       0.0594    -2.5683    -2.1300 H      1 <0>       0.1300
31 H31      -0.3426    -0.1407    -2.1015 H      1 <0>       0.1300
32 H32      -0.4685     1.0632     0.0415 H      1 <0>       0.1300
33 H33      -3.5951     1.0687     4.3884 H      1 <0>       0.1700
34 H34      -4.9574     1.7877     8.9804 H      1 <0>       0.4200
35 H35      -4.1329     0.5064     8.2724 H      1 <0>       0.4200
36 H36       0.6322     1.6840     6.8900 H      1 <0>       0.1500
37 H37       1.6637     0.2274     5.0400 H      1 <0>       0.4200
38 H38       2.1495     2.3533     2.9196 H      1 <0>       0.0800
39 H39       1.2138     1.9761     1.4531 H      1 <0>       0.0800
40 H40       0.3848     2.5853     2.9057 H      1 <0>       0.0700
@<TRIPOS>BOND
1    1    2 1
2    1   26 1
3    1   27 1
4    1   28 1
5    2    7 ar
6    2    3 ar
7    3    4 ar
8    3   29 1
9    4    5 ar
10    4   30 1
11    5    6 ar
12    5   31 1
13    6    7 ar
14    6   32 1
15    7    8 1
16    8   23 1
17    8    9 am
18    9   10 2
19    9   11 1
20   11   21 ar
21   11   12 ar
22   12   13 ar
23   12   33 1
24   13   14 1
25   13   18 ar
26   14   15 am
27   14   16 2
28   14   17 2
29   15   34 1
30   15   35 1
31   18   19 1
32   18   20 ar
33   20   21 ar
34   20   36 1
35   21   22 1
36   22   23 1
37   22   37 1
38   23   24 1
39   23   25 1
40   25   38 1
41   25   39 1
42   25   40 1
