@<TRIPOS>MOLECULE
ZINC000100001965
54    55    1     0     0
SMALL
USER_CHARGES
@<TRIPOS>ATOM
1      C1     -2.9619   -1.6907   -0.4623 C.3      1 ZINC000100001965   -0.1500
2      C2     -1.4620   -1.4322   -0.3065 C.3      1 ZINC000100001965    0.0500
3      O3     -0.7661   -1.9732   -1.4313 O.3      1 ZINC000100001965   -0.3400
4      C4      0.5756   -1.8287   -1.4491 C.2      1 ZINC000100001965    0.5200
5      O5      1.1383   -1.2583   -0.5333 O.2      1 ZINC000100001965   -0.4800
6      C6      1.3275   -2.3402   -2.5320 C.2      1 ZINC000100001965   -0.1700
7      C7      1.6072   -3.6543   -2.5758 C.2      1 ZINC000100001965    0.1600
8      C8      1.1090   -4.5583   -1.4778 C.3      1 ZINC000100001965    0.1000
9      O9      0.1567   -5.4789   -2.0141 O.3      1 ZINC000100001965   -0.3900
10     C10    -0.3808   -6.3866   -1.0501 C.3      1 ZINC000100001965    0.0200
11     C11    -1.3834   -7.3198   -1.7318 C.3      1 ZINC000100001965    0.0000
12     N12    -0.6818   -8.1620   -2.7098 N.4      1 ZINC000100001965   -0.6400
13     H13    -0.2418   -7.5764   -3.4037 H        1 ZINC000100001965    0.4400
14     H14     0.0214   -8.7107   -2.2380 H        1 ZINC000100001965    0.4300
15     H15    -1.3430   -8.7774   -3.1594 H        1 ZINC000100001965    0.4400
16     N16     2.3382   -4.1812   -3.6054 N.pl3    1 ZINC000100001965   -0.6300
17     C17     3.0952   -3.3663   -4.4022 C.2      1 ZINC000100001965    0.2300
18     C18     4.1858   -3.9627   -5.2542 C.3      1 ZINC000100001965   -0.1200
19     C19     2.8777   -2.0401   -4.4347 C.2      1 ZINC000100001965   -0.2400
20     C20     3.6841   -1.2270   -5.2644 C.2      1 ZINC000100001965    0.5200
21     O21     4.5636   -1.7293   -5.9389 O.2      1 ZINC000100001965   -0.5200
22     O22     3.4783    0.1060   -5.3081 O.3      1 ZINC000100001965   -0.3400
23     C23     4.3298    0.8660   -6.1679 C.3      1 ZINC000100001965    0.0400
24     C24     1.7913   -1.4042   -3.6118 C.3      1 ZINC000100001965    0.0700
25     H25     2.1762   -0.4949   -3.1503 H        1 ZINC000100001965    0.1100
26     C26     0.6314   -1.0532   -4.5076 C.ar     1 ZINC000100001965   -0.0700
27     C27    -0.0227   -2.0458   -5.2123 C.ar     1 ZINC000100001965   -0.0900
28     C28    -1.0869   -1.7239   -6.0343 C.ar     1 ZINC000100001965   -0.1200
29     C29    -1.4968   -0.4092   -6.1521 C.ar     1 ZINC000100001965   -0.1000
30     C30    -0.8433    0.5846   -5.4477 C.ar     1 ZINC000100001965   -0.1100
31     C31     0.2175    0.2624   -4.6204 C.ar     1 ZINC000100001965   -0.0200
32     Cl32    1.0386    1.5099   -3.7355 Cl       1 ZINC000100001965   -0.0500
33     H33    -3.3200   -1.2140   -1.3748 H        1 ZINC000100001965    0.0700
34     H34    -3.1416   -2.7643   -0.5187 H        1 ZINC000100001965    0.0600
35     H35    -3.4927   -1.2780    0.3956 H        1 ZINC000100001965    0.0800
36     H36    -1.2823   -0.3586   -0.2501 H        1 ZINC000100001965    0.0700
37     H37    -1.1039   -1.9089    0.6059 H        1 ZINC000100001965    0.0700
38     H38     1.9477   -5.1096   -1.0526 H        1 ZINC000100001965    0.0900
39     H39     0.6365   -3.9586   -0.6998 H        1 ZINC000100001965    0.0800
40     H40     0.4269   -6.9758   -0.6160 H        1 ZINC000100001965    0.0800
41     H41    -0.8842   -5.8249   -0.2632 H        1 ZINC000100001965    0.1000
42     H42    -1.8587   -7.9525   -0.9822 H        1 ZINC000100001965    0.1500
43     H43    -2.1430   -6.7271   -2.2415 H        1 ZINC000100001965    0.1400
44     H44     2.3200   -5.1368   -3.7709 H        1 ZINC000100001965    0.4200
45     H45     4.2173   -5.0415   -5.1013 H        1 ZINC000100001965    0.0600
46     H46     3.9839   -3.7503   -6.3040 H        1 ZINC000100001965    0.1000
47     H47     5.1450   -3.5278   -4.9734 H        1 ZINC000100001965    0.1100
48     H48     4.2139    0.5180   -7.1943 H        1 ZINC000100001965    0.0600
49     H49     4.0584    1.9201   -6.1088 H        1 ZINC000100001965    0.1000
50     H50     5.3667    0.7399   -5.8564 H        1 ZINC000100001965    0.0600
51     H51     0.2976   -3.0732   -5.1212 H        1 ZINC000100001965    0.1200
52     H52    -1.5977   -2.5001   -6.5848 H        1 ZINC000100001965    0.1300
53     H53    -2.3277   -0.1583   -6.7948 H        1 ZINC000100001965    0.1300
54     H54    -1.1638    1.6119   -5.5398 H        1 ZINC000100001965    0.1400
@<TRIPOS>BOND
1     1     2     1
2     1     33    1
3     1     34    1
4     1     35    1
5     2     3     1
6     2     36    1
7     2     37    1
8     3     4     1
9     4     5     2
10    4     6     1
11    6     24    1
12    6     7     2
13    7     8     1
14    7     16    1
15    8     9     1
16    8     38    1
17    8     39    1
18    9     10    1
19    10    11    1
20    10    40    1
21    10    41    1
22    11    12    1
23    11    42    1
24    11    43    1
25    12    13    1
26    12    14    1
27    12    15    1
28    16    17    1
29    16    44    1
30    17    18    1
31    17    19    2
32    18    45    1
33    18    46    1
34    18    47    1
35    19    20    1
36    19    24    1
37    20    21    2
38    20    22    1
39    22    23    1
40    23    48    1
41    23    49    1
42    23    50    1
43    24    25    1
44    24    26    1
45    26    31    ar
46    26    27    ar
47    27    28    ar
48    27    51    1
49    28    29    ar
50    28    52    1
51    29    30    ar
52    29    53    1
53    30    31    ar
54    30    54    1
55    31    32    1
@<TRIPOS>SUBSTRUCTURE
1   ZINC000100001965 1     RESIDUE    1   A     ZIN   1
