@<TRIPOS>MOLECULE
ZINC000000113398
32    32    1     0     0
SMALL
USER_CHARGES
@<TRIPOS>ATOM
1      C1     -0.0187    1.5258    0.0104 C.3      1 ZINC000000113398   -0.1500
2      C2      0.0021   -0.0041    0.0020 C.3      1 ZINC000000113398   -0.0900
3      C3      0.7421   -0.5109    1.2415 C.3      1 ZINC000000113398   -0.1500
4      C4     -1.4333   -0.5336    0.0129 C.3      1 ZINC000000113398   -0.0700
5      C5     -1.4159   -2.0348   -0.1192 C.ar     1 ZINC000000113398   -0.1000
6      C6     -1.4497   -2.6188   -1.3716 C.ar     1 ZINC000000113398   -0.1300
7      C7     -1.4338   -3.9958   -1.4928 C.ar     1 ZINC000000113398   -0.1300
8      C8     -1.3836   -4.7886   -0.3615 C.ar     1 ZINC000000113398   -0.0400
9      C9     -1.3667   -6.2897   -0.4936 C.3      1 ZINC000000113398   -0.1300
10     H10    -1.3991   -6.5620   -1.5485 H        1 ZINC000000113398    0.0700
11     C11    -0.0870   -6.8428    0.1369 C.3      1 ZINC000000113398   -0.1200
12     C12    -2.5655   -6.8696    0.2120 C.2      1 ZINC000000113398    0.5000
13     O13    -3.1733   -7.8023   -0.2852 O.co2    1 ZINC000000113398   -0.7000
14     O14    -2.9275   -6.4060    1.2799 O.co2    1 ZINC000000113398   -0.6900
15     C15    -1.3484   -4.2045    0.8909 C.ar     1 ZINC000000113398   -0.0800
16     C16    -1.3605   -2.8275    1.0119 C.ar     1 ZINC000000113398   -0.1200
17     H17     1.0039    1.9031    0.0027 H        1 ZINC000000113398    0.0500
18     H18    -0.5459    1.8868   -0.8726 H        1 ZINC000000113398    0.0500
19     H19    -0.5289    1.8773    0.9072 H        1 ZINC000000113398    0.0500
20     H20     0.5123   -0.3556   -0.8948 H        1 ZINC000000113398    0.0700
21     H21     0.7568   -1.6008    1.2356 H        1 ZINC000000113398    0.0600
22     H22     1.7647   -0.1336    1.2338 H        1 ZINC000000113398    0.0500
23     H23     0.2319   -0.1594    2.1383 H        1 ZINC000000113398    0.0500
24     H24    -1.9156   -0.2570    0.9504 H        1 ZINC000000113398    0.0700
25     H25    -1.9862   -0.1019   -0.8214 H        1 ZINC000000113398    0.0600
26     H26    -1.4890   -1.9994   -2.2555 H        1 ZINC000000113398    0.1100
27     H27    -1.4609   -4.4521   -2.4712 H        1 ZINC000000113398    0.1100
28     H28    -0.0546   -6.5705    1.1918 H        1 ZINC000000113398    0.0500
29     H29    -0.0748   -7.9285    0.0413 H        1 ZINC000000113398    0.0500
30     H30     0.7800   -6.4234   -0.3734 H        1 ZINC000000113398    0.0400
31     H31    -1.3088   -4.8239    1.7747 H        1 ZINC000000113398    0.1300
32     H32    -1.3329   -2.3712    1.9904 H        1 ZINC000000113398    0.1100
@<TRIPOS>BOND
1     1     2     1
2     1     17    1
3     1     18    1
4     1     19    1
5     2     3     1
6     2     4     1
7     2     20    1
8     3     21    1
9     3     22    1
10    3     23    1
11    4     5     1
12    4     24    1
13    4     25    1
14    5     16    ar
15    5     6     ar
16    6     7     ar
17    6     26    1
18    7     8     ar
19    7     27    1
20    8     9     1
21    8     15    ar
22    9     10    1
23    9     11    1
24    9     12    1
25    11    28    1
26    11    29    1
27    11    30    1
28    12    13    ar
29    12    14    ar
30    15    16    ar
31    15    31    1
32    16    32    1
@<TRIPOS>SUBSTRUCTURE
1   ZINC000000113398 1     RESIDUE    1   A     ZIN   1
