@<TRIPOS>MOLECULE
ZINC000002008866
44    46    1     0     0
SMALL
USER_CHARGES
@<TRIPOS>ATOM
1      C1     -0.0184    1.5028    0.0103 C.3      1 ZINC000002008866   -0.1800
2      C2      0.0021   -0.0041    0.0020 C.2      1 ZINC000002008866    0.5100
3      O3      1.0605   -0.5961   -0.0113 O.2      1 ZINC000002008866   -0.5400
4      N4     -1.1558   -0.6938    0.0094 N.am     1 ZINC000002008866   -0.7300
5      C5     -1.1360   -2.1586    0.0013 C.3      1 ZINC000002008866    0.1100
6      C6     -2.5713   -2.6882    0.0122 C.3      1 ZINC000002008866    0.0600
7      H7     -3.1177   -2.3262   -0.8588 H        1 ZINC000002008866    0.1300
8      C8     -2.5785   -4.2285    0.0526 C.3      1 ZINC000002008866    0.0700
9      N9     -3.2673   -4.5428    1.3137 N.am     1 ZINC000002008866   -0.5700
10     C10    -3.5232   -5.8310    1.8038 C.ar     1 ZINC000002008866    0.1900
11     C11    -3.1097   -6.9424    1.0827 C.ar     1 ZINC000002008866   -0.1400
12     C12    -3.3617   -8.2126    1.5645 C.ar     1 ZINC000002008866   -0.0800
13     C13    -4.0281   -8.3781    2.7702 C.ar     1 ZINC000002008866    0.0600
14     N14    -4.2832   -9.6659    3.2588 N.3      1 ZINC000002008866   -0.4800
15     C15    -5.0709   -9.6125    4.4990 C.3      1 ZINC000002008866    0.0000
16     C16    -5.3770  -11.0385    4.9646 C.3      1 ZINC000002008866    0.0600
17     O17    -4.1498  -11.7533    5.1330 O.3      1 ZINC000002008866   -0.3800
18     C18    -3.3577  -11.8254    3.9444 C.3      1 ZINC000002008866    0.0600
19     C19    -3.0311  -10.4073    3.4685 C.3      1 ZINC000002008866    0.0200
20     C20    -4.4425   -7.2647    3.4938 C.ar     1 ZINC000002008866    0.0900
21     F21    -5.0911   -7.4248    4.6681 F        1 ZINC000002008866   -0.1300
22     C22    -4.1853   -5.9946    3.0136 C.ar     1 ZINC000002008866   -0.1600
23     C23    -3.6099   -3.3968    1.9179 C.2      1 ZINC000002008866    0.6500
24     O24    -4.1945   -3.3575    2.9825 O.2      1 ZINC000002008866   -0.4900
25     O25    -3.2508   -2.2969    1.2402 O.3      1 ZINC000002008866   -0.3100
26     H26     1.0042    1.8801    0.0026 H        1 ZINC000002008866    0.0900
27     H27    -0.5455    1.8639   -0.8728 H        1 ZINC000002008866    0.0900
28     H28    -0.5286    1.8543    0.9071 H        1 ZINC000002008866    0.0900
29     H29    -2.0023   -0.2203    0.0200 H        1 ZINC000002008866    0.4100
30     H30    -0.6258   -2.5101   -0.8955 H        1 ZINC000002008866    0.1000
31     H31    -0.6088   -2.5197    0.8844 H        1 ZINC000002008866    0.0800
32     H32    -3.1312   -4.6312   -0.7962 H        1 ZINC000002008866    0.1100
33     H33    -1.5597   -4.6159    0.0659 H        1 ZINC000002008866    0.1100
34     H34    -2.5909   -6.8144    0.1441 H        1 ZINC000002008866    0.1400
35     H35    -3.0402   -9.0769    1.0023 H        1 ZINC000002008866    0.1400
36     H36    -4.5019   -9.0923    5.2695 H        1 ZINC000002008866    0.0700
37     H37    -6.0048   -9.0815    4.3144 H        1 ZINC000002008866    0.1000
38     H38    -5.9117  -11.0045    5.9138 H        1 ZINC000002008866    0.1000
39     H39    -5.9915  -11.5412    4.2177 H        1 ZINC000002008866    0.0600
40     H40    -2.4319  -12.3605    4.1559 H        1 ZINC000002008866    0.1000
41     H41    -3.9135  -12.3510    3.1679 H        1 ZINC000002008866    0.0600
42     H42    -2.4760  -10.4566    2.5317 H        1 ZINC000002008866    0.0900
43     H43    -2.4295   -9.8998    4.2225 H        1 ZINC000002008866    0.0500
44     H44    -4.5067   -5.1296    3.5747 H        1 ZINC000002008866    0.1700
@<TRIPOS>BOND
1     1     2     1
2     1     26    1
3     1     27    1
4     1     28    1
5     2     3     2
6     2     4     am
7     4     5     1
8     4     29    1
9     5     6     1
10    5     30    1
11    5     31    1
12    6     7     1
13    6     25    1
14    6     8     1
15    8     9     1
16    8     32    1
17    8     33    1
18    9     10    1
19    9     23    am
20    10    22    ar
21    10    11    ar
22    11    12    ar
23    11    34    1
24    12    13    ar
25    12    35    1
26    13    14    1
27    13    20    ar
28    14    19    1
29    14    15    1
30    15    16    1
31    15    36    1
32    15    37    1
33    16    17    1
34    16    38    1
35    16    39    1
36    17    18    1
37    18    19    1
38    18    40    1
39    18    41    1
40    19    42    1
41    19    43    1
42    20    21    1
43    20    22    ar
44    22    44    1
45    23    24    2
46    23    25    1
@<TRIPOS>SUBSTRUCTURE
1   ZINC000002008866 1     RESIDUE    1   A     ZIN   1
