@<TRIPOS>MOLECULE
ZINC000008214418
56    56    1     0     0
SMALL
USER_CHARGES
@<TRIPOS>ATOM
1      C1     -0.0184    1.5028    0.0103 C.3      1 ZINC000008214418   -0.1800
2      C2      0.0021   -0.0041    0.0020 C.2      1 ZINC000008214418    0.5400
3      O3      0.5441   -0.6082    0.9033 O.2      1 ZINC000008214418   -0.5100
4      N4     -0.5820   -0.6804   -1.0069 N.am     1 ZINC000008214418   -0.5700
5      C5     -0.5621   -2.1452   -1.0150 C.3      1 ZINC000008214418    0.0800
6      C6     -1.7974   -2.6761   -0.2847 C.3      1 ZINC000008214418    0.0800
7      H7     -2.6970   -2.3221   -0.7881 H        1 ZINC000008214418    0.1100
8      O8     -1.7910   -2.2070    1.0651 O.3      1 ZINC000008214418   -0.5300
9      C9     -1.7766   -4.2059   -0.2932 C.3      1 ZINC000008214418    0.0500
10     O10    -2.9856   -4.7019    0.2851 O.3      1 ZINC000008214418   -0.5600
11     C11    -1.2078    0.0172   -2.0476 C.ar     1 ZINC000008214418    0.2100
12     C12    -2.5509    0.3493   -1.9483 C.ar     1 ZINC000008214418   -0.0800
13     I13    -3.6393   -0.1925   -0.2421 I        1 ZINC000008214418    0.0600
14     C14    -3.1788    1.0452   -2.9845 C.ar     1 ZINC000008214418   -0.0400
15     C15    -4.6095    1.3990   -2.8776 C.2      1 ZINC000008214418    0.5500
16     O16    -4.9382    2.4574   -2.3780 O.2      1 ZINC000008214418   -0.4900
17     N17    -5.5500    0.5483   -3.3339 N.am     1 ZINC000008214418   -0.7000
18     C18    -6.9684    0.8991   -3.2279 C.3      1 ZINC000008214418    0.1200
19     C19    -7.8182   -0.2296   -3.8152 C.3      1 ZINC000008214418    0.0600
20     O20    -7.6597   -1.4075   -3.0218 O.3      1 ZINC000008214418   -0.5700
21     C21    -2.4537    1.4057   -4.1192 C.ar     1 ZINC000008214418   -0.0500
22     I22    -3.3897    2.4498   -5.6757 I        1 ZINC000008214418    0.0300
23     C23    -1.1037    1.0701   -4.2155 C.ar     1 ZINC000008214418   -0.0400
24     C24    -0.3307    1.4504   -5.4161 C.2      1 ZINC000008214418    0.5600
25     O25     0.2467    2.5195   -5.4538 O.2      1 ZINC000008214418   -0.4900
26     N26    -0.2658    0.6120   -6.4694 N.am     1 ZINC000008214418   -0.7000
27     C27     0.5006    0.9891   -7.6596 C.3      1 ZINC000008214418    0.0900
28     C28     0.4119   -0.1301   -8.6990 C.3      1 ZINC000008214418    0.1000
29     H29    -0.6309   -0.2892   -8.9736 H        1 ZINC000008214418    0.1100
30     O30     0.9486   -1.3348   -8.1488 O.3      1 ZINC000008214418   -0.5500
31     C31     1.2122    0.2637   -9.9421 C.3      1 ZINC000008214418    0.0500
32     O32     1.0349   -0.7271  -10.9565 O.3      1 ZINC000008214418   -0.5600
33     C33    -0.4815    0.3793   -3.1731 C.ar     1 ZINC000008214418   -0.0700
34     I34     1.5467   -0.1256   -3.3164 I        1 ZINC000008214418    0.0300
35     H35     1.0042    1.8801    0.0026 H        1 ZINC000008214418    0.1000
36     H36    -0.5455    1.8639   -0.8728 H        1 ZINC000008214418    0.0700
37     H37    -0.5286    1.8543    0.9071 H        1 ZINC000008214418    0.1100
38     H38    -0.5670   -2.5030   -2.0446 H        1 ZINC000008214418    0.0900
39     H39     0.3376   -2.4992   -0.5116 H        1 ZINC000008214418    0.1100
40     H40    -1.0172   -2.4847    1.5743 H        1 ZINC000008214418    0.3700
41     H41    -1.6919   -4.5625   -1.3197 H        1 ZINC000008214418    0.0500
42     H42    -0.9244   -4.5609    0.2863 H        1 ZINC000008214418    0.0500
43     H43    -3.0414   -5.6669    0.3128 H        1 ZINC000008214418    0.3800
44     H44    -5.2877   -0.2962   -3.7325 H        1 ZINC000008214418    0.4100
45     H45    -7.2297    1.0428   -2.1795 H        1 ZINC000008214418    0.0800
46     H46    -7.1570    1.8204   -3.7789 H        1 ZINC000008214418    0.0900
47     H47    -8.8666    0.0686   -3.8176 H        1 ZINC000008214418    0.0700
48     H48    -7.4960   -0.4332   -4.8364 H        1 ZINC000008214418    0.0500
49     H49    -8.1711   -2.1654   -3.3366 H        1 ZINC000008214418    0.3800
50     H50    -0.7265   -0.2410   -6.4393 H        1 ZINC000008214418    0.4100
51     H51     0.0911    1.9080   -8.0793 H        1 ZINC000008214418    0.0900
52     H52     1.5433    1.1481   -7.3850 H        1 ZINC000008214418    0.0800
53     H53     1.8754   -1.2664   -7.8816 H        1 ZINC000008214418    0.3800
54     H54     0.8608    1.2275  -10.3102 H        1 ZINC000008214418    0.0600
55     H55     2.2692    0.3361   -9.6858 H        1 ZINC000008214418    0.0500
56     H56     1.5150   -0.5421  -11.7752 H        1 ZINC000008214418    0.3800
@<TRIPOS>BOND
1     1     2     1
2     1     35    1
3     1     36    1
4     1     37    1
5     2     3     2
6     2     4     am
7     4     5     1
8     4     11    1
9     5     6     1
10    5     38    1
11    5     39    1
12    6     7     1
13    6     8     1
14    6     9     1
15    8     40    1
16    9     10    1
17    9     41    1
18    9     42    1
19    10    43    1
20    11    33    ar
21    11    12    ar
22    12    13    1
23    12    14    ar
24    14    15    1
25    14    21    ar
26    15    16    2
27    15    17    am
28    17    18    1
29    17    44    1
30    18    19    1
31    18    45    1
32    18    46    1
33    19    20    1
34    19    47    1
35    19    48    1
36    20    49    1
37    21    22    1
38    21    23    ar
39    23    24    1
40    23    33    ar
41    24    25    2
42    24    26    am
43    26    27    1
44    26    50    1
45    27    28    1
46    27    51    1
47    27    52    1
48    28    29    1
49    28    30    1
50    28    31    1
51    30    53    1
52    31    32    1
53    31    54    1
54    31    55    1
55    32    56    1
56    33    34    1
@<TRIPOS>SUBSTRUCTURE
1   ZINC000008214418 1     RESIDUE    1   A     ZIN   1
