@<TRIPOS>MOLECULE
ZINC000003940470
31    33    1     0     0
SMALL
USER_CHARGES
@<TRIPOS>ATOM
1      N1     -0.0167    1.3829    0.0096 N.pl3    1 ZINC000003940470   -0.8500
2      C2      0.0021   -0.0041    0.0020 C.ar     1 ZINC000003940470    0.3000
3      C3     -1.1947   -0.7239    0.0038 C.ar     1 ZINC000003940470   -0.1700
4      C4     -1.1789   -2.1020   -0.0037 C.ar     1 ZINC000003940470   -0.0400
5      C5      0.0241   -2.7954   -0.0132 C.ar     1 ZINC000003940470   -0.1000
6      C6      1.2213   -2.1012   -0.0151 C.ar     1 ZINC000003940470   -0.0900
7      C7      1.2156   -0.6898   -0.0133 C.ar     1 ZINC000003940470   -0.2500
8      C8      2.6298   -0.2796   -0.0153 C.2      1 ZINC000003940470    0.5900
9      O9      3.0352    0.8660   -0.0145 O.2      1 ZINC000003940470   -0.4800
10     N10     3.3985   -1.3835   -0.0181 N.am     1 ZINC000003940470   -0.5600
11     C11     4.8635   -1.3734   -0.0200 C.3      1 ZINC000003940470    0.1300
12     H12     5.2207   -0.3436   -0.0188 H        1 ZINC000003940470    0.1500
13     C13     5.3822   -2.0969    1.2274 C.3      1 ZINC000003940470   -0.1400
14     C14     6.9106   -2.1723    1.1475 C.3      1 ZINC000003940470   -0.1400
15     C15     7.3058   -2.8371   -0.1446 C.2      1 ZINC000003940470    0.5200
16     O16     8.3418   -3.4644   -0.1977 O.2      1 ZINC000003940470   -0.4900
17     N17     6.5335   -2.7491   -1.2379 N.am     1 ZINC000003940470   -0.6700
18     C18     5.3699   -2.0803   -1.2494 C.2      1 ZINC000003940470    0.5200
19     O19     4.7136   -2.0470   -2.2681 O.2      1 ZINC000003940470   -0.4800
20     C20     2.6448   -2.4980   -0.0232 C.2      1 ZINC000003940470    0.5800
21     O21     3.0638   -3.6381   -0.0266 O.2      1 ZINC000003940470   -0.4600
22     H22     0.8166    1.8792    0.0044 H        1 ZINC000003940470    0.4100
23     H23    -0.8633    1.8564    0.0162 H        1 ZINC000003940470    0.4100
24     H24    -2.1378   -0.1978    0.0115 H        1 ZINC000003940470    0.1400
25     H25    -2.1109   -2.6477   -0.0019 H        1 ZINC000003940470    0.1500
26     H26     0.0254   -3.8754   -0.0186 H        1 ZINC000003940470    0.1400
27     H27     5.0892   -1.5437    2.1197 H        1 ZINC000003940470    0.1100
28     H28     4.9674   -3.1042    1.2653 H        1 ZINC000003940470    0.1000
29     H29     7.3273   -1.1657    1.1815 H        1 ZINC000003940470    0.1200
30     H30     7.2910   -2.7536    1.9874 H        1 ZINC000003940470    0.1300
31     H31     6.8280   -3.1852   -2.0527 H        1 ZINC000003940470    0.4200
@<TRIPOS>BOND
1     1     2     1
2     1     22    1
3     1     23    1
4     2     7     ar
5     2     3     ar
6     3     4     ar
7     3     24    1
8     4     5     ar
9     4     25    1
10    5     6     ar
11    5     26    1
12    6     20    1
13    6     7     ar
14    7     8     1
15    8     9     2
16    8     10    am
17    10    11    1
18    10    20    am
19    11    12    1
20    11    18    1
21    11    13    1
22    13    14    1
23    13    27    1
24    13    28    1
25    14    15    1
26    14    29    1
27    14    30    1
28    15    16    2
29    15    17    am
30    17    18    am
31    17    31    1
32    18    19    2
33    20    21    2
@<TRIPOS>SUBSTRUCTURE
1   ZINC000003940470 1     RESIDUE    1   A     ZIN   1
