@<TRIPOS>MOLECULE
ZINC000019156872
43    45    1     0     0
SMALL
USER_CHARGES
@<TRIPOS>ATOM
1      C1     -0.0178    1.4648    0.0101 C.3      1 ZINC000019156872   -0.0500
2      N2      0.0021   -0.0041    0.0020 N.4      1 ZINC000019156872   -0.3900
3      H3     -0.9446   -0.3531    0.0092 H        1 ZINC000019156872    0.4200
4      C4      0.7119   -0.4904    1.1925 C.3      1 ZINC000019156872    0.0000
5      C5      0.7166   -2.0206    1.1942 C.3      1 ZINC000019156872    0.0200
6      N6      1.3783   -2.5070   -0.0247 N.3      1 ZINC000019156872   -0.5300
7      C7      1.4533   -3.9741   -0.0333 C.3      1 ZINC000019156872    0.1800
8      C8      2.1363   -4.4347   -1.2953 C.ar     1 ZINC000019156872   -0.0900
9      C9      3.2313   -3.7442   -1.7801 C.ar     1 ZINC000019156872   -0.1000
10     C10     3.8578   -4.1668   -2.9376 C.ar     1 ZINC000019156872   -0.1200
11     C11     3.3895   -5.2801   -3.6101 C.ar     1 ZINC000019156872   -0.1100
12     C12     2.2951   -5.9711   -3.1247 C.ar     1 ZINC000019156872   -0.1200
13     C13     1.6712   -5.5511   -1.9649 C.ar     1 ZINC000019156872   -0.1100
14     C14     2.2394   -4.4439    1.1635 C.ar     1 ZINC000019156872   -0.0900
15     C15     3.3650   -3.7501    1.5668 C.ar     1 ZINC000019156872   -0.1000
16     C16     4.0861   -4.1810    2.6647 C.ar     1 ZINC000019156872   -0.1200
17     C17     3.6813   -5.3055    3.3594 C.ar     1 ZINC000019156872   -0.1100
18     C18     2.5552   -5.9987    2.9567 C.ar     1 ZINC000019156872   -0.1200
19     C19     1.8317   -5.5653    1.8614 C.ar     1 ZINC000019156872   -0.1100
20     C20     0.6932   -2.0076   -1.2253 C.3      1 ZINC000019156872    0.0200
21     C21     0.6890   -0.4775   -1.2069 C.3      1 ZINC000019156872    0.0000
22     H22     1.0047    1.8421    0.0024 H        1 ZINC000019156872    0.1200
23     H23    -0.5450    1.8259   -0.8730 H        1 ZINC000019156872    0.1200
24     H24    -0.5280    1.8163    0.9069 H        1 ZINC000019156872    0.1200
25     H25     1.7384   -0.1239    1.1783 H        1 ZINC000019156872    0.1400
26     H26     0.2090   -0.1276    2.0888 H        1 ZINC000019156872    0.1400
27     H27     1.2562   -2.3817    2.0697 H        1 ZINC000019156872    0.1300
28     H28    -0.3095   -2.3874    1.2221 H        1 ZINC000019156872    0.0600
29     H29     0.4465   -4.3896    0.0073 H        1 ZINC000019156872    0.0700
30     H30     3.5972   -2.8744   -1.2547 H        1 ZINC000019156872    0.1300
31     H31     4.7129   -3.6269   -3.3168 H        1 ZINC000019156872    0.1200
32     H32     3.8786   -5.6098   -4.5148 H        1 ZINC000019156872    0.1300
33     H33     1.9290   -6.8407   -3.6503 H        1 ZINC000019156872    0.1300
34     H34     0.8162   -6.0909   -1.5857 H        1 ZINC000019156872    0.1200
35     H35     3.6812   -2.8716    1.0240 H        1 ZINC000019156872    0.1300
36     H36     4.9659   -3.6394    2.9793 H        1 ZINC000019156872    0.1200
37     H37     4.2451   -5.6425    4.2167 H        1 ZINC000019156872    0.1300
38     H38     2.2392   -6.8774    3.4993 H        1 ZINC000019156872    0.1300
39     H39     0.9519   -6.1069    1.5467 H        1 ZINC000019156872    0.1200
40     H40     1.2157   -2.3592   -2.1150 H        1 ZINC000019156872    0.1300
41     H41    -0.3333   -2.3742   -1.2373 H        1 ZINC000019156872    0.0600
42     H42     0.1689   -0.1049   -2.0894 H        1 ZINC000019156872    0.1400
43     H43     1.7157   -0.1113   -1.2087 H        1 ZINC000019156872    0.1400
@<TRIPOS>BOND
1     1     2     1
2     1     22    1
3     1     23    1
4     1     24    1
5     2     3     1
6     2     21    1
7     2     4     1
8     4     5     1
9     4     25    1
10    4     26    1
11    5     6     1
12    5     27    1
13    5     28    1
14    6     7     1
15    6     20    1
16    7     8     1
17    7     14    1
18    7     29    1
19    8     13    ar
20    8     9     ar
21    9     10    ar
22    9     30    1
23    10    11    ar
24    10    31    1
25    11    12    ar
26    11    32    1
27    12    13    ar
28    12    33    1
29    13    34    1
30    14    19    ar
31    14    15    ar
32    15    16    ar
33    15    35    1
34    16    17    ar
35    16    36    1
36    17    18    ar
37    17    37    1
38    18    19    ar
39    18    38    1
40    19    39    1
41    20    21    1
42    20    40    1
43    20    41    1
44    21    42    1
45    21    43    1
@<TRIPOS>SUBSTRUCTURE
1   ZINC000019156872 1     RESIDUE    1   A     ZIN   1
