@<TRIPOS>MOLECULE
ZINC000000057278
46   47    0    0    0
SMALL
USER_CHARGES
NO_NAME
@<TRIPOS>ATOM
1 C1       -0.0187     1.5258     0.0104 C.3    1 <0>      -0.1800
2 C2        0.0021    -0.0041     0.0020 C.3    1 <0>       0.0300
3 H3        0.5123    -0.3556    -0.8948 H      1 <0>       0.1400
4 C4        0.7421    -0.5109     1.2415 C.3    1 <0>      -0.1400
5 C5        0.8719    -2.0337     1.1708 C.3    1 <0>      -0.0900
6 C6        1.6008    -2.5330     2.3917 C.ar   1 <0>      -0.1100
7 C7        2.9792    -2.6404     2.3768 C.ar   1 <0>      -0.0900
8 C8        3.6497    -3.0977     3.4947 C.ar   1 <0>      -0.1400
9 C9        2.9388    -3.4489     4.6331 C.ar   1 <0>       0.1200
10 O10       3.5962    -3.8987     5.7342 O.3    1 <0>      -0.5000
11 C11       1.5559    -3.3398     4.6457 C.ar   1 <0>      -0.1400
12 C12       0.8905    -2.8774     3.5269 C.ar   1 <0>      -0.1000
13 N13      -1.3761    -0.5125     0.0124 N.4    1 <0>      -0.5100
14 H14      -1.3629    -1.5185     0.0898 H      1 <0>       0.4300
15 H15      -1.8730    -0.1212     0.7986 H      1 <0>       0.4300
16 C16      -2.0500    -0.1261    -1.2343 C.3    1 <0>      -0.0100
17 C17      -3.4854    -0.6557    -1.2235 C.3    1 <0>      -0.1000
18 C18      -4.1768    -0.2594    -2.5025 C.ar   1 <0>      -0.1000
19 C19      -4.8592     0.9404    -2.5742 C.ar   1 <0>      -0.1000
20 C20      -5.4956     1.3084    -3.7455 C.ar   1 <0>      -0.1300
21 C21      -5.4496     0.4741    -4.8504 C.ar   1 <0>       0.1000
22 O22      -6.0746     0.8348    -6.0031 O.3    1 <0>      -0.4800
23 C23      -4.7619    -0.7339    -4.7783 C.ar   1 <0>       0.0900
24 O24      -4.7135    -1.5561    -5.8604 O.3    1 <0>      -0.4800
25 C25      -4.1222    -1.0942    -3.6036 C.ar   1 <0>      -0.1200
26 H26       1.0039     1.9031     0.0027 H      1 <0>       0.1100
27 H27      -0.5459     1.8868    -0.8726 H      1 <0>       0.0800
28 H28      -0.5289     1.8773     0.9072 H      1 <0>       0.0800
29 H29       1.7350    -0.0630     1.2804 H      1 <0>       0.1200
30 H30       0.1838    -0.2350     2.1361 H      1 <0>       0.0900
31 H31      -0.1210    -2.4817     1.1320 H      1 <0>       0.0700
32 H32       1.4302    -2.3096     0.2763 H      1 <0>       0.0900
33 H33       3.5321    -2.3668     1.4903 H      1 <0>       0.1300
34 H34       4.7263    -3.1821     3.4823 H      1 <0>       0.1300
35 H35       3.8542    -3.2000     6.3510 H      1 <0>       0.4000
36 H36       1.0002    -3.6129     5.5306 H      1 <0>       0.1300
37 H37      -0.1861    -2.7919     3.5363 H      1 <0>       0.1200
38 H38      -2.0643     0.9605    -1.3179 H      1 <0>       0.1400
39 H39      -1.5132    -0.5489    -2.0836 H      1 <0>       0.1300
40 H40      -3.4711    -1.7424    -1.1399 H      1 <0>       0.1000
41 H41      -4.0222    -0.2330    -0.3742 H      1 <0>       0.1000
42 H42      -4.8958     1.5917    -1.7135 H      1 <0>       0.1300
43 H43      -6.0288     2.2461    -3.7987 H      1 <0>       0.1400
44 H44      -5.5183     1.3420    -6.6100 H      1 <0>       0.4000
45 H45      -3.9626    -1.3907    -6.4468 H      1 <0>       0.3900
46 H46      -3.5880    -2.0310    -3.5450 H      1 <0>       0.1400
@<TRIPOS>BOND
1    1    2 1
2    1   26 1
3    1   27 1
4    1   28 1
5    2    3 1
6    2    4 1
7    2   13 1
8    4    5 1
9    4   29 1
10    4   30 1
11    5    6 1
12    5   31 1
13    5   32 1
14    6   12 ar
15    6    7 ar
16    7    8 ar
17    7   33 1
18    8    9 ar
19    8   34 1
20    9   10 1
21    9   11 ar
22   10   35 1
23   11   12 ar
24   11   36 1
25   12   37 1
26   13   14 1
27   13   15 1
28   13   16 1
29   16   17 1
30   16   38 1
31   16   39 1
32   17   18 1
33   17   40 1
34   17   41 1
35   18   25 ar
36   18   19 ar
37   19   20 ar
38   19   42 1
39   20   21 ar
40   20   43 1
41   21   22 1
42   21   23 ar
43   22   44 1
44   23   24 1
45   23   25 ar
46   24   45 1
47   25   46 1
