@<TRIPOS>MOLECULE
ZINC000019203912
57    60    1     0     0
SMALL
USER_CHARGES
@<TRIPOS>ATOM
1      O1     -3.0368    1.2936    1.5675 O.3      1 ZINC000019203912   -0.5800
2      C2     -1.6699    1.2604    1.1522 C.3      1 ZINC000019203912    0.0300
3      C3     -1.4435    0.0540    0.2388 C.3      1 ZINC000019203912    0.0500
4      N4     -2.2010    0.2341   -1.0069 N.3      1 ZINC000019203912   -0.5300
5      C5     -1.9936    1.5800   -1.5596 C.3      1 ZINC000019203912    0.0200
6      C6     -2.7499    1.7065   -2.8839 C.3      1 ZINC000019203912    0.0000
7      N7     -4.1811    1.4675   -2.6554 N.4      1 ZINC000019203912   -0.3800
8      H8     -4.5323    2.1406   -1.9907 H        1 ZINC000019203912    0.4200
9      C9     -4.9091    1.6065   -3.9237 C.3      1 ZINC000019203912   -0.0100
10     C10    -6.4119    1.4812   -3.6655 C.3      1 ZINC000019203912   -0.1900
11     C11    -7.1702    1.6259   -4.9865 C.3      1 ZINC000019203912    0.1200
12     N12    -8.6092    1.5060   -4.7393 N.pl3    1 ZINC000019203912   -0.5600
13     C13    -9.3164    2.6699   -4.4478 C.ar     1 ZINC000019203912    0.1900
14     C14    -8.6301    3.7525   -3.9084 C.ar     1 ZINC000019203912   -0.1600
15     C15    -9.2985    4.9253   -3.6110 C.ar     1 ZINC000019203912   -0.0800
16     C16   -10.6557    5.0299   -3.8475 C.ar     1 ZINC000019203912   -0.1300
17     C17   -11.3481    3.9588   -4.3818 C.ar     1 ZINC000019203912   -0.0500
18     C18   -10.6840    2.7773   -4.6825 C.ar     1 ZINC000019203912   -0.1600
19     S19   -11.5899    1.4262   -5.3555 S.3      1 ZINC000019203912    0.0500
20     C20   -10.5262    0.0486   -5.0917 C.ar     1 ZINC000019203912   -0.1200
21     C21   -11.0470   -1.2363   -5.1643 C.ar     1 ZINC000019203912   -0.0600
22     C22   -10.2285   -2.3318   -4.9582 C.ar     1 ZINC000019203912   -0.0800
23     C23    -8.8879   -2.1486   -4.6788 C.ar     1 ZINC000019203912   -0.1500
24     C24    -7.9970   -3.3430   -4.4537 C.3      1 ZINC000019203912    0.5100
25     F25    -8.7491   -4.5159   -4.5784 F        1 ZINC000019203912   -0.1700
26     F26    -6.9700   -3.3443   -5.4037 F        1 ZINC000019203912   -0.1800
27     F27    -7.4447   -3.2774   -3.1700 F        1 ZINC000019203912   -0.1800
28     C28    -8.3618   -0.8725   -4.6057 C.ar     1 ZINC000019203912   -0.1200
29     C29    -9.1770    0.2366   -4.8173 C.ar     1 ZINC000019203912    0.1900
30     C30    -4.3744    0.1109   -2.1266 C.3      1 ZINC000019203912   -0.0100
31     C31    -3.6316   -0.0288   -0.7960 C.3      1 ZINC000019203912    0.0200
32     H32    -3.2529    2.0342    2.1504 H        1 ZINC000019203912    0.3900
33     H33    -1.4323    2.1759    0.6106 H        1 ZINC000019203912    0.0500
34     H34    -1.0260    1.1789    2.0280 H        1 ZINC000019203912    0.0600
35     H35    -0.3816   -0.0334    0.0088 H        1 ZINC000019203912    0.1100
36     H36    -1.7820   -0.8515    0.7422 H        1 ZINC000019203912    0.1000
37     H37    -2.3664    2.3238   -0.8554 H        1 ZINC000019203912    0.0700
38     H38    -0.9296    1.7426   -1.7315 H        1 ZINC000019203912    0.1200
39     H39    -2.6090    2.7087   -3.2885 H        1 ZINC000019203912    0.1400
40     H40    -2.3675    0.9716   -3.5923 H        1 ZINC000019203912    0.1400
41     H41    -4.6955    2.5821   -4.3602 H        1 ZINC000019203912    0.1400
42     H42    -4.5922    0.8231   -4.6122 H        1 ZINC000019203912    0.1400
43     H43    -6.6255    0.5055   -3.2290 H        1 ZINC000019203912    0.1000
44     H44    -6.7288    2.2645   -2.9770 H        1 ZINC000019203912    0.1000
45     H45    -6.9566    2.6016   -5.4230 H        1 ZINC000019203912    0.1000
46     H46    -6.8533    0.8426   -5.6750 H        1 ZINC000019203912    0.1000
47     H47    -7.5693    3.6764   -3.7204 H        1 ZINC000019203912    0.1300
48     H48    -8.7585    5.7618   -3.1925 H        1 ZINC000019203912    0.1300
49     H49   -11.1756    5.9475   -3.6148 H        1 ZINC000019203912    0.1400
50     H50   -12.4090    4.0418   -4.5659 H        1 ZINC000019203912    0.1400
51     H51   -12.0949   -1.3808   -5.3820 H        1 ZINC000019203912    0.1500
52     H52   -10.6371   -3.3299   -5.0153 H        1 ZINC000019203912    0.1500
53     H53    -7.3133   -0.7355   -4.3862 H        1 ZINC000019203912    0.1300
54     H54    -5.4378   -0.0698   -1.9697 H        1 ZINC000019203912    0.1300
55     H55    -3.9836   -0.6158   -2.8389 H        1 ZINC000019203912    0.1400
56     H56    -3.7626   -1.0400   -0.4108 H        1 ZINC000019203912    0.1200
57     H57    -4.0314    0.6885   -0.0792 H        1 ZINC000019203912    0.0900
@<TRIPOS>BOND
1     1     2     1
2     1     32    1
3     2     3     1
4     2     33    1
5     2     34    1
6     3     4     1
7     3     35    1
8     3     36    1
9     4     31    1
10    4     5     1
11    5     6     1
12    5     37    1
13    5     38    1
14    6     7     1
15    6     39    1
16    6     40    1
17    7     8     1
18    7     9     1
19    7     30    1
20    9     10    1
21    9     41    1
22    9     42    1
23    10    11    1
24    10    43    1
25    10    44    1
26    11    12    1
27    11    45    1
28    11    46    1
29    12    29    1
30    12    13    1
31    13    18    ar
32    13    14    ar
33    14    15    ar
34    14    47    1
35    15    16    ar
36    15    48    1
37    16    17    ar
38    16    49    1
39    17    18    ar
40    17    50    1
41    18    19    1
42    19    20    1
43    20    29    ar
44    20    21    ar
45    21    22    ar
46    21    51    1
47    22    23    ar
48    22    52    1
49    23    24    1
50    23    28    ar
51    24    25    1
52    24    26    1
53    24    27    1
54    28    29    ar
55    28    53    1
56    30    31    1
57    30    54    1
58    30    55    1
59    31    56    1
60    31    57    1
@<TRIPOS>SUBSTRUCTURE
1   ZINC000019203912 1     RESIDUE    1   A     ZIN   1
