@<TRIPOS>MOLECULE
ZINC000003813061
44   45    0    0    0
SMALL
USER_CHARGES
NO_NAME
@<TRIPOS>ATOM
1 C1       -0.0187     1.5258     0.0104 C.3    1 <0>      -0.1500
2 C2        0.0021    -0.0041     0.0020 C.3    1 <0>      -0.1200
3 C3        0.7421    -0.5109     1.2415 C.3    1 <0>      -0.1300
4 C4        0.7628    -2.0407     1.2331 C.3    1 <0>       0.1200
5 N5        1.4714    -2.5260     2.4200 N.pl3  1 <0>      -0.7400
6 C6        1.6200    -3.9014     2.6327 C.ar   1 <0>       0.1900
7 C7        1.1034    -4.8019     1.7204 C.ar   1 <0>      -0.0900
8 C8        1.2543    -6.1760     1.9372 C.ar   1 <0>      -0.1000
9 C9        0.7066    -7.1404     0.9686 C.2    1 <0>       0.5200
10 O10       0.1188    -6.7405    -0.0270 O.co2  1 <0>      -0.6800
11 O11       0.8393    -8.3415     1.1595 O.co2  1 <0>      -0.6700
12 C12       1.9270    -6.6314     3.0755 C.ar   1 <0>      -0.0200
13 C13       2.4391    -5.7282     3.9811 C.ar   1 <0>      -0.6500
14 S14       3.2855    -6.3054     5.4147 S.o2   1 <0>       2.7000
15 N15       4.8612    -5.8124     5.2853 N.am   1 <0>      -1.2500
16 O16       2.7336    -5.5999     6.5178 O.2    1 <0>      -0.9500
17 O17       3.3005    -7.7236     5.3280 O.2    1 <0>      -0.9600
18 C18       2.2955    -4.3645     3.7642 C.ar   1 <0>       0.0700
19 O19       2.8026    -3.4792     4.6596 O.3    1 <0>      -0.2400
20 C20       4.0789    -3.0496     4.4792 C.ar   1 <0>       0.1200
21 C21       4.8216    -3.5106     3.4015 C.ar   1 <0>      -0.2100
22 C22       6.1190    -3.0722     3.2203 C.ar   1 <0>      -0.0800
23 C23       6.6777    -2.1749     4.1117 C.ar   1 <0>      -0.1600
24 C24       5.9398    -1.7139     5.1864 C.ar   1 <0>      -0.0800
25 C25       4.6401    -2.1447     5.3690 C.ar   1 <0>      -0.1400
26 H26       1.0039     1.9031     0.0027 H      1 <0>       0.0500
27 H27      -0.5459     1.8868    -0.8726 H      1 <0>       0.0500
28 H28      -0.5289     1.8773     0.9072 H      1 <0>       0.0500
29 H29      -1.0205    -0.3814     0.0098 H      1 <0>       0.0700
30 H30       0.5123    -0.3556    -0.8948 H      1 <0>       0.0700
31 H31       1.7647    -0.1336     1.2338 H      1 <0>       0.0700
32 H32       0.2319    -0.1594     2.1383 H      1 <0>       0.0700
33 H33      -0.2598    -2.4180     1.2409 H      1 <0>       0.0600
34 H34       1.2730    -2.3923     0.3363 H      1 <0>       0.0600
35 H35       1.8375    -1.8942     3.0584 H      1 <0>       0.4000
36 H36       0.5843    -4.4459     0.8428 H      1 <0>       0.1400
37 H37       2.0447    -7.6915     3.2450 H      1 <0>       0.1600
38 H38       5.1478    -5.3024     4.5116 H      1 <0>       0.4100
39 H39       5.4974    -6.0336     5.9833 H      1 <0>       0.4200
40 H40       4.3859    -4.2118     2.7052 H      1 <0>       0.1300
41 H41       6.6976    -3.4310     2.3819 H      1 <0>       0.1300
42 H42       7.6923    -1.8337     3.9684 H      1 <0>       0.1200
43 H43       6.3785    -1.0130     5.8811 H      1 <0>       0.1300
44 H44       4.0642    -1.7843     6.2085 H      1 <0>       0.1300
@<TRIPOS>BOND
1    1    2 1
2    1   26 1
3    1   27 1
4    1   28 1
5    2    3 1
6    2   29 1
7    2   30 1
8    3    4 1
9    3   31 1
10    3   32 1
11    4    5 1
12    4   33 1
13    4   34 1
14    5    6 1
15    5   35 1
16    6   18 ar
17    6    7 ar
18    7    8 ar
19    7   36 1
20    8    9 1
21    8   12 ar
22    9   10 ar
23    9   11 ar
24   12   13 ar
25   12   37 1
26   13   14 1
27   13   18 ar
28   14   15 am
29   14   16 2
30   14   17 2
31   15   38 1
32   15   39 1
33   18   19 1
34   19   20 1
35   20   25 ar
36   20   21 ar
37   21   22 ar
38   21   40 1
39   22   23 ar
40   22   41 1
41   23   24 ar
42   23   42 1
43   24   25 ar
44   24   43 1
45   25   44 1
