@<TRIPOS>MOLECULE
ZINC000028467879
52    55    1     0     0
SMALL
USER_CHARGES
@<TRIPOS>ATOM
1      C1     -4.1378   -4.6998    0.4994 C.3      1 ZINC000028467879    0.0300
2      O2     -2.8044   -4.1915    0.4245 O.3      1 ZINC000028467879   -0.1800
3      N3     -2.7246   -2.7780    0.4503 N.2      1 ZINC000028467879   -0.2800
4      C4     -1.5637   -2.1898    0.3883 C.2      1 ZINC000028467879    0.1800
5      C5     -0.3217   -2.9979    0.4069 C.2      1 ZINC000028467879    0.5400
6      O6     -0.3857   -4.2110    0.3780 O.2      1 ZINC000028467879   -0.5100
7      N7      0.8788   -2.3874    0.4560 N.am     1 ZINC000028467879   -0.6800
8      C8      2.1013   -3.1845    0.5841 C.3      1 ZINC000028467879    0.1200
9      H9      1.9881   -4.1986    0.2008 H        1 ZINC000028467879    0.1500
10     C10     2.7280   -3.1217    1.9667 C.2      1 ZINC000028467879    0.5300
11     O11     2.4602   -3.6153    3.0417 O.2      1 ZINC000028467879   -0.4500
12     N12     3.6975   -2.3022    1.5249 N.am     1 ZINC000028467879   -0.5600
13     C13     4.6357   -1.4013    2.0578 C.2      1 ZINC000028467879    0.1500
14     C14     5.1856   -1.6216    3.4053 C.2      1 ZINC000028467879    0.5300
15     O15     4.5794   -1.2154    4.3873 O.co2    1 ZINC000028467879   -0.6600
16     O16     6.2488   -2.2110    3.5432 O.co2    1 ZINC000028467879   -0.6500
17     C17     5.0252   -0.3528    1.3452 C.2      1 ZINC000028467879   -0.2100
18     C18     5.9893    0.5833    2.0274 C.3      1 ZINC000028467879   -0.0300
19     S19     7.6580    0.3052    1.3837 S.3      1 ZINC000028467879   -0.0300
20     C20     8.5265    1.4619    2.2995 C.2      1 ZINC000028467879    0.3500
21     N21     7.8714    2.2100    3.1739 N.2      1 ZINC000028467879   -0.6500
22     C22     8.5057    3.1240    3.9096 C.2      1 ZINC000028467879    0.4400
23     O23     7.8927    3.8052    4.7102 O.2      1 ZINC000028467879   -0.5400
24     C24     9.9826    3.2998    3.7370 C.2      1 ZINC000028467879    0.3800
25     O25    10.5939    4.1210    4.3890 O.2      1 ZINC000028467879   -0.6000
26     N26    10.6164    2.5167    2.8338 N.pl3    1 ZINC000028467879   -0.4800
27     N27     9.8672    1.5790    2.1097 N.pl3    1 ZINC000028467879   -0.3700
28     C28    10.5360    0.7223    1.1274 C.3      1 ZINC000028467879    0.1000
29     C29     4.6310    0.0197   -0.0461 C.3      1 ZINC000028467879   -0.0200
30     S30     3.0849   -0.7865   -0.5629 S.3      1 ZINC000028467879   -0.2300
31     C31     3.3514   -2.4740    0.0755 C.3      1 ZINC000028467879    0.1300
32     H32     4.0401   -3.0778   -0.5154 H        1 ZINC000028467879    0.1500
33     C33    -1.4855   -0.7158    0.2994 C.2      1 ZINC000028467879    0.1400
34     C34    -2.5724    0.0731    0.4095 C.2      1 ZINC000028467879   -0.2300
35     S35    -2.0566    1.7501    0.2487 S.3      1 ZINC000028467879    0.0800
36     C36    -0.3895    1.2219    0.0437 C.2      1 ZINC000028467879    0.3800
37     N37     0.6956    2.0597   -0.1518 N.pl3    1 ZINC000028467879   -0.8000
38     N38    -0.3335   -0.0714    0.1101 N.2      1 ZINC000028467879   -0.5400
39     H39    -4.1133   -5.7892    0.4739 H        1 ZINC000028467879    0.1000
40     H40    -4.6013   -4.3684    1.4286 H        1 ZINC000028467879    0.0500
41     H41    -4.7159   -4.3295   -0.3473 H        1 ZINC000028467879    0.0500
42     H42     0.9335   -1.4202    0.4065 H        1 ZINC000028467879    0.4300
43     H43     5.6927    1.6143    1.8346 H        1 ZINC000028467879    0.1000
44     H44     5.9784    0.3969    3.1013 H        1 ZINC000028467879    0.1200
45     H45    11.5997    0.9592    1.1031 H        1 ZINC000028467879    0.0900
46     H46    10.4029   -0.3229    1.4064 H        1 ZINC000028467879    0.0700
47     H47    10.1032    0.8932    0.1417 H        1 ZINC000028467879    0.0600
48     H48     4.5010    1.1006   -0.0994 H        1 ZINC000028467879    0.1200
49     H49     5.4279   -0.2729   -0.7297 H        1 ZINC000028467879    0.1000
50     H50    -3.5858   -0.2647    0.5684 H        1 ZINC000028467879    0.1900
51     H51     0.5668    3.0205   -0.1848 H        1 ZINC000028467879    0.4200
52     H52     1.5846    1.6857   -0.2559 H        1 ZINC000028467879    0.4200
@<TRIPOS>BOND
1     1     2     1
2     1     39    1
3     1     40    1
4     1     41    1
5     2     3     1
6     3     4     2
7     4     5     1
8     4     33    1
9     5     6     2
10    5     7     am
11    7     8     1
12    7     42    1
13    8     9     1
14    8     31    1
15    8     10    1
16    10    11    2
17    10    12    am
18    12    31    1
19    12    13    1
20    13    14    1
21    13    17    2
22    14    15    ar
23    14    16    ar
24    17    18    1
25    17    29    1
26    18    19    1
27    18    43    1
28    18    44    1
29    19    20    1
30    20    27    1
31    20    21    2
32    21    22    1
33    22    23    2
34    22    24    1
35    24    25    2
36    24    26    1
37    26    27    1
38    27    28    1
39    28    45    1
40    28    46    1
41    28    47    1
42    29    30    1
43    29    48    1
44    29    49    1
45    30    31    1
46    31    32    1
47    33    38    1
48    33    34    2
49    34    35    1
50    34    50    1
51    35    36    1
52    36    37    1
53    36    38    2
54    37    51    1
55    37    52    1
@<TRIPOS>SUBSTRUCTURE
1   ZINC000028467879 1     RESIDUE    1   A     ZIN   1
