@<TRIPOS>MOLECULE
ZINC000003807917
49    52    1     0     0
SMALL
USER_CHARGES
@<TRIPOS>ATOM
1      C1      0.5925    1.8796    0.5195 C.3      1 ZINC000003807917   -0.1400
2      C2      0.7286    0.3578    0.4401 C.3      1 ZINC000003807917   -0.1200
3      C3     -0.6335   -0.2657    0.2052 C.3      1 ZINC000003807917   -0.1000
4      C4     -1.5660    0.2549    1.3101 C.3      1 ZINC000003807917   -0.1200
5      C5     -1.0304   -0.0698    2.7017 C.3      1 ZINC000003807917   -0.0700
6      H6     -1.0302   -1.1528    2.8256 H        1 ZINC000003807917    0.0700
7      C7      0.4044    0.4396    2.8949 C.3      1 ZINC000003807917   -0.0700
8      H8      0.4298    1.5276    2.8346 H        1 ZINC000003807917    0.0900
9      C9      0.8960   -0.0267    4.2699 C.3      1 ZINC000003807917   -0.0800
10     C10    -0.0571    0.4547    5.3247 C.2      1 ZINC000003807917   -0.1500
11     C11    -1.3127    0.6984    5.0878 C.2      1 ZINC000003807917   -0.1000
12     C12    -2.1833    1.1718    6.2398 C.3      1 ZINC000003807917   -0.1200
13     C13    -3.4298    0.2840    6.3004 C.3      1 ZINC000003807917    0.1100
14     H14    -3.1372   -0.7371    6.5449 H        1 ZINC000003807917    0.0500
15     O15    -4.3184    0.7783    7.3044 O.3      1 ZINC000003807917   -0.5700
16     C16    -4.1340    0.3014    4.9426 C.3      1 ZINC000003807917   -0.1200
17     C17    -3.2207   -0.3138    3.8804 C.3      1 ZINC000003807917   -0.1000
18     C18    -1.9437    0.5322    3.7566 C.3      1 ZINC000003807917   -0.0200
19     C19    -2.3419    1.9257    3.2661 C.3      1 ZINC000003807917   -0.1500
20     C20     1.2569   -0.1916    1.7923 C.3      1 ZINC000003807917   -0.0800
21     H21     1.1848   -1.2785    1.8297 H        1 ZINC000003807917    0.0800
22     C22     2.7259    0.2491    1.7564 C.3      1 ZINC000003807917   -0.1100
23     C23     3.1216   -0.0187    0.2785 C.3      1 ZINC000003807917   -0.1800
24     C24     1.8111   -0.0033   -0.5339 C.2      1 ZINC000003807917    0.3800
25     O25     1.6827   -0.2378   -1.7115 O.2      1 ZINC000003807917   -0.4400
26     H26     1.5661    2.3208    0.7331 H        1 ZINC000003807917    0.0600
27     H27     0.2214    2.2613   -0.4316 H        1 ZINC000003807917    0.0600
28     H28    -0.1069    2.1410    1.3137 H        1 ZINC000003807917    0.0800
29     H29    -1.0141    0.0306   -0.7723 H        1 ZINC000003807917    0.0700
30     H30    -0.5598   -1.3517    0.2625 H        1 ZINC000003807917    0.0700
31     H31    -1.6656    1.3358    1.2109 H        1 ZINC000003807917    0.0800
32     H32    -2.5479   -0.2033    1.1914 H        1 ZINC000003807917    0.0700
33     H33     0.9418   -1.1156    4.2901 H        1 ZINC000003807917    0.0700
34     H34     1.8876    0.3837    4.4605 H        1 ZINC000003807917    0.0700
35     H35     0.3167    0.6053    6.3267 H        1 ZINC000003807917    0.1000
36     H36    -1.6297    1.0915    7.1753 H        1 ZINC000003807917    0.0700
37     H37    -2.4783    2.2080    6.0751 H        1 ZINC000003807917    0.0800
38     H38    -3.9372    0.7959    8.1929 H        1 ZINC000003807917    0.3800
39     H39    -5.0570   -0.2751    5.0053 H        1 ZINC000003807917    0.0700
40     H40    -4.3677    1.3301    4.6683 H        1 ZINC000003807917    0.0700
41     H41    -2.9465   -1.3257    4.1785 H        1 ZINC000003807917    0.0600
42     H42    -3.7440   -0.3451    2.9248 H        1 ZINC000003807917    0.0800
43     H43    -2.9177    2.4326    4.0403 H        1 ZINC000003807917    0.0600
44     H44    -1.4444    2.5030    3.0441 H        1 ZINC000003807917    0.0600
45     H45    -2.9473    1.8342    2.3643 H        1 ZINC000003807917    0.0600
46     H46     2.8182    1.3084    1.9960 H        1 ZINC000003807917    0.0800
47     H47     3.3282   -0.3560    2.4341 H        1 ZINC000003807917    0.0800
48     H48     3.7936    0.7631   -0.0755 H        1 ZINC000003807917    0.1000
49     H49     3.6028   -0.9928    0.1915 H        1 ZINC000003807917    0.1000
@<TRIPOS>BOND
1     1     2     1
2     1     26    1
3     1     27    1
4     1     28    1
5     2     20    1
6     2     24    1
7     2     3     1
8     3     4     1
9     3     29    1
10    3     30    1
11    4     5     1
12    4     31    1
13    4     32    1
14    5     6     1
15    5     18    1
16    5     7     1
17    7     8     1
18    7     9     1
19    7     20    1
20    9     10    1
21    9     33    1
22    9     34    1
23    10    11    2
24    10    35    1
25    11    18    1
26    11    12    1
27    12    13    1
28    12    36    1
29    12    37    1
30    13    14    1
31    13    15    1
32    13    16    1
33    15    38    1
34    16    17    1
35    16    39    1
36    16    40    1
37    17    18    1
38    17    41    1
39    17    42    1
40    18    19    1
41    19    43    1
42    19    44    1
43    19    45    1
44    20    21    1
45    20    22    1
46    22    23    1
47    22    46    1
48    22    47    1
49    23    24    1
50    23    48    1
51    23    49    1
52    24    25    2
@<TRIPOS>SUBSTRUCTURE
1   ZINC000003807917 1     RESIDUE    1   A     ZIN   1
