@<TRIPOS>MOLECULE
ZINC000014768621
66    67    1     0     0
SMALL
USER_CHARGES
@<TRIPOS>ATOM
1      N1     -5.9993    3.4511    3.5215 N.2      1 ZINC000014768621   -0.7900
2      C2     -5.4142    4.6148    3.5302 C.2      1 ZINC000014768621    0.6500
3      N3     -6.1711    5.7677    3.4965 N.pl3    1 ZINC000014768621   -0.6400
4      C4     -7.5446    5.6942    3.5996 C.cat    1 ZINC000014768621    0.7400
5      N5     -8.2512    6.7857    3.6775 N.pl3    1 ZINC000014768621   -0.7700
6      H6     -9.2084    6.7343    3.8259 H        1 ZINC000014768621    0.4500
7      H7     -7.8202    7.6500    3.5870 H        1 ZINC000014768621    0.4400
8      N8     -8.1678    4.4691    3.6201 N.pl3    1 ZINC000014768621   -0.6500
9      C9     -9.6304    4.3908    3.5942 C.3      1 ZINC000014768621    0.0800
10     C10   -10.0632    2.9236    3.6248 C.3      1 ZINC000014768621   -0.1300
11     C11   -11.5908    2.8417    3.5977 C.3      1 ZINC000014768621   -0.1200
12     C12   -12.0235    1.3745    3.6284 C.3      1 ZINC000014768621   -0.1200
13     C13   -13.5511    1.2927    3.6013 C.3      1 ZINC000014768621   -0.1300
14     C14   -13.9839   -0.1745    3.6319 C.3      1 ZINC000014768621    0.0800
15     N15   -15.4465   -0.2528    3.6060 N.pl3    1 ZINC000014768621   -0.6500
16     C16   -16.0697   -1.4780    3.6265 C.cat    1 ZINC000014768621    0.7400
17     N17   -15.3702   -2.5615    3.8088 N.pl3    1 ZINC000014768621   -0.7700
18     H18   -15.7970   -3.4303    3.7479 H        1 ZINC000014768621    0.4400
19     H19   -14.4223   -2.4995    4.0054 H        1 ZINC000014768621    0.4500
20     N20   -17.4357   -1.5598    3.4541 N.pl3    1 ZINC000014768621   -0.6400
21     C21   -18.1561   -0.4350    3.1092 C.2      1 ZINC000014768621    0.6500
22     N22   -17.5348    0.6703    2.8112 N.2      1 ZINC000014768621   -0.7900
23     N23   -19.5313   -0.4806    3.0801 N.pl3    1 ZINC000014768621   -0.6800
24     C24   -20.1974   -1.6802    3.3544 C.ar     1 ZINC000014768621    0.1200
25     C25   -19.8002   -2.4668    4.4278 C.ar     1 ZINC000014768621   -0.1700
26     C26   -20.4594   -3.6503    4.6962 C.ar     1 ZINC000014768621   -0.0800
27     C27   -21.5147   -4.0527    3.8967 C.ar     1 ZINC000014768621   -0.0400
28     Cl28  -22.3415   -5.5408    4.2372 Cl       1 ZINC000014768621   -0.0400
29     C29   -21.9125   -3.2709    2.8264 C.ar     1 ZINC000014768621   -0.0700
30     C30   -21.2605   -2.0836    2.5570 C.ar     1 ZINC000014768621   -0.1100
31     N31    -4.0410    4.6942    3.5730 N.pl3    1 ZINC000014768621   -0.6700
32     C32    -3.4163    5.9377    3.7203 C.ar     1 ZINC000014768621    0.1300
33     C33    -3.9851    6.9099    4.5326 C.ar     1 ZINC000014768621   -0.1700
34     C34    -3.3666    8.1364    4.6762 C.ar     1 ZINC000014768621   -0.0700
35     C35    -2.1811    8.3968    4.0116 C.ar     1 ZINC000014768621   -0.0400
36     Cl36   -1.4059    9.9393    4.1948 Cl       1 ZINC000014768621   -0.0400
37     C37    -1.6121    7.4298    3.2016 C.ar     1 ZINC000014768621   -0.0700
38     C38    -2.2236    6.1996    3.0590 C.ar     1 ZINC000014768621   -0.1200
39     H39    -5.4676    2.6413    3.4716 H        1 ZINC000014768621    0.3800
40     H40    -5.7374    6.6300    3.4003 H        1 ZINC000014768621    0.4500
41     H41    -7.6390    3.6565    3.6518 H        1 ZINC000014768621    0.4500
42     H42   -10.0374    4.9079    4.4632 H        1 ZINC000014768621    0.0900
43     H43   -10.0034    4.8607    2.6841 H        1 ZINC000014768621    0.0900
44     H44    -9.6562    2.4065    2.7559 H        1 ZINC000014768621    0.0800
45     H45    -9.6902    2.4537    4.5349 H        1 ZINC000014768621    0.0800
46     H46   -11.9978    3.3588    4.4667 H        1 ZINC000014768621    0.0700
47     H47   -11.9637    3.3116    2.6877 H        1 ZINC000014768621    0.0700
48     H48   -11.6165    0.8575    2.7594 H        1 ZINC000014768621    0.0700
49     H49   -11.6506    0.9047    4.5384 H        1 ZINC000014768621    0.0700
50     H50   -13.9581    1.8098    4.4702 H        1 ZINC000014768621    0.0800
51     H51   -13.9240    1.7626    2.6912 H        1 ZINC000014768621    0.0800
52     H52   -13.5768   -0.6916    2.7629 H        1 ZINC000014768621    0.0900
53     H53   -13.6109   -0.6444    4.5420 H        1 ZINC000014768621    0.0900
54     H54   -15.9753    0.5598    3.5743 H        1 ZINC000014768621    0.4500
55     H55   -17.8899   -2.4083    3.5754 H        1 ZINC000014768621    0.4500
56     H56   -18.0407    1.4800    2.6396 H        1 ZINC000014768621    0.3800
57     H57   -20.0387    0.3187    2.8695 H        1 ZINC000014768621    0.4400
58     H58   -18.9764   -2.1534    5.0519 H        1 ZINC000014768621    0.1300
59     H59   -20.1507   -4.2626    5.5306 H        1 ZINC000014768621    0.1500
60     H60   -22.7365   -3.5872    2.2040 H        1 ZINC000014768621    0.1500
61     H61   -21.5714   -1.4737    1.7217 H        1 ZINC000014768621    0.1500
62     H62    -3.5061    3.8883    3.5010 H        1 ZINC000014768621    0.4400
63     H63    -4.9105    6.7073    5.0512 H        1 ZINC000014768621    0.1300
64     H64    -3.8087    8.8930    5.3075 H        1 ZINC000014768621    0.1500
65     H65    -0.6868    7.6356    2.6841 H        1 ZINC000014768621    0.1500
66     H66    -1.7791    5.4452    2.4268 H        1 ZINC000014768621    0.1500
@<TRIPOS>BOND
1     1     2     2
2     1     39    1
3     2     3     1
4     2     31    1
5     3     4     ar
6     3     40    1
7     4     5     ar
8     4     8     ar
9     5     6     1
10    5     7     1
11    8     9     1
12    8     41    1
13    9     10    1
14    9     42    1
15    9     43    1
16    10    11    1
17    10    44    1
18    10    45    1
19    11    12    1
20    11    46    1
21    11    47    1
22    12    13    1
23    12    48    1
24    12    49    1
25    13    14    1
26    13    50    1
27    13    51    1
28    14    15    1
29    14    52    1
30    14    53    1
31    15    16    ar
32    15    54    1
33    16    17    ar
34    16    20    ar
35    17    18    1
36    17    19    1
37    20    21    1
38    20    55    1
39    21    22    2
40    21    23    1
41    22    56    1
42    23    24    1
43    23    57    1
44    24    30    ar
45    24    25    ar
46    25    26    ar
47    25    58    1
48    26    27    ar
49    26    59    1
50    27    28    1
51    27    29    ar
52    29    30    ar
53    29    60    1
54    30    61    1
55    31    32    1
56    31    62    1
57    32    38    ar
58    32    33    ar
59    33    34    ar
60    33    63    1
61    34    35    ar
62    34    64    1
63    35    36    1
64    35    37    ar
65    37    38    ar
66    37    65    1
67    38    66    1
@<TRIPOS>SUBSTRUCTURE
1   ZINC000014768621 1     RESIDUE    1   A     ZIN   1
