@<TRIPOS>MOLECULE
ZINC000002015035
25    25    1     0     0
SMALL
USER_CHARGES
@<TRIPOS>ATOM
1      N1     -0.0178    1.4648    0.0101 N.3      1 ZINC000002015035   -0.8200
2      C2      0.0021   -0.0041    0.0020 C.3      1 ZINC000002015035    0.0000
3      H3      0.5890   -0.3641    0.8470 H        1 ZINC000002015035    0.0800
4      C4     -1.4074   -0.5262    0.1106 C.2      1 ZINC000002015035    0.5100
5      O5     -2.3508    0.2389    0.0044 O.co2    1 ZINC000002015035   -0.6800
6      O6     -1.6044   -1.7136    0.3048 O.co2    1 ZINC000002015035   -0.7000
7      C7      0.6299   -0.4984   -1.3027 C.3      1 ZINC000002015035    0.1200
8      H8      0.6447   -1.5883   -1.3087 H        1 ZINC000002015035    0.1100
9      O9     -0.1396   -0.0264   -2.4104 O.3      1 ZINC000002015035   -0.5400
10     C10     2.0394    0.0237   -1.4113 C.ar     1 ZINC000002015035   -0.0900
11     C11     2.2635    1.3220   -1.8288 C.ar     1 ZINC000002015035   -0.1100
12     C12     3.5550    1.8057   -1.9305 C.ar     1 ZINC000002015035   -0.1200
13     C13     4.6276    0.9885   -1.6133 C.ar     1 ZINC000002015035    0.0700
14     O14     5.8983    1.4627   -1.7124 O.3      1 ZINC000002015035   -0.4900
15     C15     4.4019   -0.3190   -1.1924 C.ar     1 ZINC000002015035    0.0800
16     O16     5.4516   -1.1249   -0.8794 O.3      1 ZINC000002015035   -0.4900
17     C17     3.1054   -0.7956   -1.0877 C.ar     1 ZINC000002015035   -0.1200
18     H18     0.9191    1.8392    0.0032 H        1 ZINC000002015035    0.3200
19     H19    -0.5563    1.8234   -0.7642 H        1 ZINC000002015035    0.3400
20     H20    -0.1959    0.9372   -2.4681 H        1 ZINC000002015035    0.3600
21     H21     1.4281    1.9601   -2.0764 H        1 ZINC000002015035    0.1300
22     H22     3.7275    2.8204   -2.2577 H        1 ZINC000002015035    0.1300
23     H23     6.2282    1.8759   -0.9027 H        1 ZINC000002015035    0.3800
24     H24     5.7174   -1.0817    0.0494 H        1 ZINC000002015035    0.3900
25     H25     2.9276   -1.8096   -0.7614 H        1 ZINC000002015035    0.1400
@<TRIPOS>BOND
1     1     2     1
2     1     18    1
3     1     19    1
4     2     3     1
5     2     4     1
6     2     7     1
7     4     5     ar
8     4     6     ar
9     7     8     1
10    7     9     1
11    7     10    1
12    9     20    1
13    10    17    ar
14    10    11    ar
15    11    12    ar
16    11    21    1
17    12    13    ar
18    12    22    1
19    13    14    1
20    13    15    ar
21    14    23    1
22    15    16    1
23    15    17    ar
24    16    24    1
25    17    25    1
@<TRIPOS>SUBSTRUCTURE
1   ZINC000002015035 1     RESIDUE    1   A     ZIN   1
