@<TRIPOS>MOLECULE
ZINC000002015928
39    42    1     0     0
SMALL
USER_CHARGES
@<TRIPOS>ATOM
1      N1     -0.0167    1.3810    0.0096 N.pl3    1 ZINC000002015928   -0.8200
2      C2      0.0021   -0.0041    0.0020 C.ar     1 ZINC000002015928    0.6300
3      N3     -1.1511   -0.6604    0.0041 N.ar     1 ZINC000002015928   -0.6300
4      C4     -1.1853   -1.9883   -0.0030 C.ar     1 ZINC000002015928    0.5500
5      N5     -2.3927   -2.6641   -0.0012 N.pl3    1 ZINC000002015928   -0.6600
6      C6     -3.6515   -1.9148    0.0086 C.3      1 ZINC000002015928    0.0900
7      C7     -4.7653   -2.3926   -0.9253 C.3      1 ZINC000002015928   -0.1900
8      C8     -4.8851   -2.6135    0.5839 C.3      1 ZINC000002015928   -0.1900
9      C9      0.0313   -2.6921   -0.0127 C.ar     1 ZINC000002015928   -0.1500
10     N10     0.3708   -4.0047   -0.0211 N.2      1 ZINC000002015928   -0.4500
11     C11     1.6669   -4.1166   -0.0278 C.2      1 ZINC000002015928    0.2400
12     N12     2.2412   -2.8789   -0.0241 N.pl3    1 ZINC000002015928   -0.4700
13     C13     3.6774   -2.5897   -0.0294 C.3      1 ZINC000002015928    0.1700
14     H14     3.8472   -1.5131   -0.0126 H        1 ZINC000002015928    0.1200
15     C15     4.3512   -3.2474    1.1524 C.2      1 ZINC000002015928   -0.1900
16     C16     5.4616   -3.8326    0.7945 C.2      1 ZINC000002015928   -0.1200
17     C17     5.7136   -3.6628   -0.6856 C.3      1 ZINC000002015928   -0.0700
18     H18     6.4653   -2.8923   -0.8569 H        1 ZINC000002015928    0.1000
19     C19     6.1597   -4.9884   -1.3058 C.3      1 ZINC000002015928    0.0800
20     O20     7.4395   -5.3517   -0.7840 O.3      1 ZINC000002015928   -0.5700
21     C21     4.3496   -3.2218   -1.2703 C.3      1 ZINC000002015928   -0.1300
22     C22     1.2271   -1.9551   -0.0146 C.ar     1 ZINC000002015928    0.3500
23     N23     1.1693   -0.6271   -0.0125 N.ar     1 ZINC000002015928   -0.6200
24     H24     0.8166    1.8773    0.0043 H        1 ZINC000002015928    0.4100
25     H25    -0.8632    1.8545    0.0162 H        1 ZINC000002015928    0.4200
26     H26    -2.4056   -3.6340   -0.0064 H        1 ZINC000002015928    0.4200
27     H27    -3.5584   -0.8414    0.1734 H        1 ZINC000002015928    0.1400
28     H28    -5.4051   -1.6334   -1.3752 H        1 ZINC000002015928    0.1000
29     H29    -4.5614   -3.2644   -1.5470 H        1 ZINC000002015928    0.1000
30     H30    -4.7601   -3.6306    0.9552 H        1 ZINC000002015928    0.1000
31     H31    -5.6037   -1.9996    1.1269 H        1 ZINC000002015928    0.1100
32     H32     2.2083   -5.0511   -0.0352 H        1 ZINC000002015928    0.2100
33     H33     3.9648   -3.2346    2.1609 H        1 ZINC000002015928    0.1300
34     H34     6.1148   -4.3676    1.4680 H        1 ZINC000002015928    0.1400
35     H35     5.4346   -5.7653   -1.0633 H        1 ZINC000002015928    0.0500
36     H36     6.2265   -4.8789   -2.3883 H        1 ZINC000002015928    0.0500
37     H37     7.7852   -6.1841   -1.1343 H        1 ZINC000002015928    0.3800
38     H38     3.7808   -4.0804   -1.6270 H        1 ZINC000002015928    0.0900
39     H39     4.4834   -2.4862   -2.0635 H        1 ZINC000002015928    0.0900
@<TRIPOS>BOND
1     1     2     1
2     1     24    1
3     1     25    1
4     2     23    ar
5     2     3     ar
6     3     4     ar
7     4     5     1
8     4     9     ar
9     5     6     1
10    5     26    1
11    6     8     1
12    6     7     1
13    6     27    1
14    7     8     1
15    7     28    1
16    7     29    1
17    8     30    1
18    8     31    1
19    9     22    ar
20    9     10    1
21    10    11    2
22    11    12    1
23    11    32    1
24    12    13    1
25    12    22    1
26    13    14    1
27    13    21    1
28    13    15    1
29    15    16    2
30    15    33    1
31    16    17    1
32    16    34    1
33    17    18    1
34    17    19    1
35    17    21    1
36    19    20    1
37    19    35    1
38    19    36    1
39    20    37    1
40    21    38    1
41    21    39    1
42    22    23    ar
@<TRIPOS>SUBSTRUCTURE
1   ZINC000002015928 1     RESIDUE    1   A     ZIN   1
