@<TRIPOS>MOLECULE
ZINC000022010382
32    33    1     0     0
SMALL
USER_CHARGES
@<TRIPOS>ATOM
1      C1     -0.0187    1.5258    0.0104 C.3      1 ZINC000022010382   -0.1900
2      C2      0.0021   -0.0041    0.0020 C.3      1 ZINC000022010382    0.0000
3      H3      0.5122   -0.3559   -0.8947 H        1 ZINC000022010382    0.1500
4      C4     -1.4338   -0.5343    0.0138 C.3      1 ZINC000022010382    0.1300
5      H5     -1.4201   -1.6232   -0.0327 H        1 ZINC000022010382    0.0900
6      C6     -2.1814    0.0109   -1.1757 C.ar     1 ZINC000022010382   -0.1100
7      C7     -2.6875    1.2968   -1.1439 C.ar     1 ZINC000022010382   -0.0900
8      C8     -3.3733    1.7969   -2.2350 C.ar     1 ZINC000022010382   -0.1200
9      C9     -3.5525    1.0112   -3.3581 C.ar     1 ZINC000022010382   -0.1000
10     C10    -3.0456   -0.2745   -3.3903 C.ar     1 ZINC000022010382   -0.1200
11     C11    -2.3562   -0.7730   -2.3008 C.ar     1 ZINC000022010382   -0.1000
12     O12    -2.0811   -0.1158    1.2187 O.3      1 ZINC000022010382   -0.3500
13     C13    -1.4134   -0.5462    2.4081 C.3      1 ZINC000022010382    0.0300
14     C14     0.0225   -0.0160    2.4008 C.3      1 ZINC000022010382   -0.0500
15     N15     0.7119   -0.4912    1.1928 N.4      1 ZINC000022010382   -0.3800
16     H16     1.6587   -0.1426    1.1866 H        1 ZINC000022010382    0.4300
17     C17     0.7307   -1.9601    1.1854 C.3      1 ZINC000022010382   -0.0600
18     H18     1.0039    1.9031    0.0027 H        1 ZINC000022010382    0.0800
19     H19    -0.5459    1.8868   -0.8726 H        1 ZINC000022010382    0.1100
20     H20    -0.5289    1.8773    0.9072 H        1 ZINC000022010382    0.0900
21     H21    -2.5475    1.9107   -0.2664 H        1 ZINC000022010382    0.1300
22     H22    -3.7693    2.8014   -2.2098 H        1 ZINC000022010382    0.1300
23     H23    -4.0889    1.4016   -4.2103 H        1 ZINC000022010382    0.1300
24     H24    -3.1860   -0.8885   -4.2676 H        1 ZINC000022010382    0.1300
25     H25    -1.9601   -1.7775   -2.3259 H        1 ZINC000022010382    0.1300
26     H26    -1.9396   -0.1599    3.2810 H        1 ZINC000022010382    0.1400
27     H27    -1.3990   -1.6355    2.4436 H        1 ZINC000022010382    0.0800
28     H28     0.0077    1.0739    2.4059 H        1 ZINC000022010382    0.1400
29     H29     0.5480   -0.3769    3.2849 H        1 ZINC000022010382    0.1400
30     H30    -0.2922   -2.3366    1.1917 H        1 ZINC000022010382    0.1200
31     H31     1.2419   -2.3124    0.2895 H        1 ZINC000022010382    0.1300
32     H32     1.2562   -2.3212    2.0694 H        1 ZINC000022010382    0.1300
@<TRIPOS>BOND
1     1     2     1
2     1     18    1
3     1     19    1
4     1     20    1
5     2     3     1
6     2     15    1
7     2     4     1
8     4     5     1
9     4     6     1
10    4     12    1
11    6     11    ar
12    6     7     ar
13    7     8     ar
14    7     21    1
15    8     9     ar
16    8     22    1
17    9     10    ar
18    9     23    1
19    10    11    ar
20    10    24    1
21    11    25    1
22    12    13    1
23    13    14    1
24    13    26    1
25    13    27    1
26    14    15    1
27    14    28    1
28    14    29    1
29    15    16    1
30    15    17    1
31    17    30    1
32    17    31    1
33    17    32    1
@<TRIPOS>SUBSTRUCTURE
1   ZINC000022010382 1     RESIDUE    1   A     ZIN   1
