@<TRIPOS>MOLECULE
ZINC000011680943
45   45    0    0    0
SMALL
USER_CHARGES
NO_NAME
@<TRIPOS>ATOM
1 C1       -0.0187     1.5258     0.0104 C.3    1 <0>      -0.1700
2 C2        0.0021    -0.0041     0.0020 C.3    1 <0>       0.1500
3 H3        0.5123    -0.3556    -0.8948 H      1 <0>       0.0900
4 C4        0.7421    -0.5109     1.2415 C.3    1 <0>      -0.0900
5 C5        0.8700    -2.0108     1.1719 C.ar   1 <0>      -0.0800
6 C6       -0.1174    -2.8145     1.7105 C.ar   1 <0>      -0.1200
7 C7       -0.0001    -4.1904     1.6467 C.ar   1 <0>      -0.1200
8 C8        1.1044    -4.7626     1.0438 C.ar   1 <0>      -0.1200
9 C9        2.0914    -3.9590     0.5043 C.ar   1 <0>      -0.1100
10 C10       1.9720    -2.5831     0.5644 C.ar   1 <0>      -0.1100
11 N11      -1.3723    -0.5112     0.0124 N.am   1 <0>      -0.7200
12 C12      -2.0508    -0.6427    -1.1446 C.2    1 <0>       0.4800
13 O13      -1.5236    -0.3413    -2.1944 O.2    1 <0>      -0.5400
14 C14      -3.4646    -1.1643    -1.1339 C.3    1 <0>       0.0700
15 H15      -4.0015    -0.7416    -0.2847 H      1 <0>       0.1000
16 N16      -4.1386    -0.7780    -2.3807 N.3    1 <0>      -0.8200
17 C17      -3.4446    -2.6897    -1.0166 C.3    1 <0>      -0.1100
18 C18      -4.8771    -3.2096    -0.8803 C.3    1 <0>      -0.1100
19 C19      -4.8570    -4.7350    -0.7629 C.3    1 <0>      -0.1500
20 C20      -6.2895    -5.2549    -0.6267 C.3    1 <0>      -0.0100
21 N21      -6.2703    -6.7194    -0.5140 N.4    1 <0>      -0.6400
22 H22      -7.2150    -7.0623    -0.4241 H      1 <0>       0.4400
23 H23      -5.8462    -7.1147    -1.3398 H      1 <0>       0.4400
24 H24      -5.7365    -6.9872     0.2993 H      1 <0>       0.4300
25 H25       1.0039     1.9031     0.0027 H      1 <0>       0.0700
26 H26      -0.5459     1.8868    -0.8726 H      1 <0>       0.0600
27 H27      -0.5289     1.8773     0.9072 H      1 <0>       0.0600
28 H28       1.7350    -0.0630     1.2804 H      1 <0>       0.0900
29 H29       0.1838    -0.2350     2.1361 H      1 <0>       0.0800
30 H30      -0.9803    -2.3674     2.1815 H      1 <0>       0.1200
31 H31      -0.7712    -4.8182     2.0681 H      1 <0>       0.1200
32 H32       1.1964    -5.8375     0.9945 H      1 <0>       0.1200
33 H33       2.9545    -4.4061     0.0336 H      1 <0>       0.1200
34 H34       2.7431    -1.9552     0.1430 H      1 <0>       0.1200
35 H35      -1.7940    -0.7522     0.8520 H      1 <0>       0.4000
36 H36      -4.2220     0.2251    -2.4508 H      1 <0>       0.3500
37 H37      -3.6596    -1.1579    -3.1834 H      1 <0>       0.3500
38 H38      -2.9864    -3.1167    -1.9087 H      1 <0>       0.0700
39 H39      -2.8680    -2.9790    -0.1380 H      1 <0>       0.0700
40 H40      -5.3353    -2.7826     0.0118 H      1 <0>       0.0700
41 H41      -5.4537    -2.9203    -1.7589 H      1 <0>       0.0900
42 H42      -4.3989    -5.1620    -1.6550 H      1 <0>       0.0900
43 H43      -4.2804    -5.0242     0.1156 H      1 <0>       0.0900
44 H44      -6.7477    -4.8278     0.2654 H      1 <0>       0.1300
45 H45      -6.8662    -4.9656    -1.5052 H      1 <0>       0.1300
@<TRIPOS>BOND
1    1    2 1
2    1   25 1
3    1   26 1
4    1   27 1
5    2    3 1
6    2    4 1
7    2   11 1
8    4    5 1
9    4   28 1
10    4   29 1
11    5   10 ar
12    5    6 ar
13    6    7 ar
14    6   30 1
15    7    8 ar
16    7   31 1
17    8    9 ar
18    8   32 1
19    9   10 ar
20    9   33 1
21   10   34 1
22   11   12 am
23   11   35 1
24   12   13 2
25   12   14 1
26   14   15 1
27   14   16 1
28   14   17 1
29   16   36 1
30   16   37 1
31   17   18 1
32   17   38 1
33   17   39 1
34   18   19 1
35   18   40 1
36   18   41 1
37   19   20 1
38   19   42 1
39   19   43 1
40   20   21 1
41   20   44 1
42   20   45 1
43   21   22 1
44   21   23 1
45   21   24 1
