@<TRIPOS>MOLECULE
ZINC000000000509
40    43    1     0     0
SMALL
USER_CHARGES
@<TRIPOS>ATOM
1      C1     -0.0178    1.4648    0.0101 C.3      1 ZINC000000000509   -0.0600
2      N2      0.0021   -0.0041    0.0020 N.4      1 ZINC000000000509   -0.3900
3      H3     -0.9427   -0.3582    0.0091 H        1 ZINC000000000509    0.4300
4      C4      0.7056   -0.4861   -1.1982 C.3      1 ZINC000000000509   -0.0200
5      C5      2.0888    0.1563   -1.2265 C.3      1 ZINC000000000509    0.0600
6      N6      2.8596   -0.2101   -0.0139 N.3      1 ZINC000000000509   -0.5100
7      C7      4.1476    0.2285   -0.2353 C.ar     1 ZINC000000000509    0.3300
8      N8      4.2986    0.6981   -1.4901 N.ar     1 ZINC000000000509   -0.5400
9      C9      5.4419    1.0962   -1.9871 C.ar     1 ZINC000000000509    0.1500
10     C10     6.5824    1.0412   -1.2103 C.ar     1 ZINC000000000509   -0.1900
11     C11     6.4698    0.6041    0.0920 C.ar     1 ZINC000000000509   -0.0500
12     C12     5.2183    0.2246    0.6131 C.ar     1 ZINC000000000509   -0.1300
13     C13     5.2498   -0.0401    2.0612 C.3      1 ZINC000000000509   -0.0500
14     C14     4.0612   -0.3339    2.8806 C.ar     1 ZINC000000000509   -0.0300
15     C15     4.3690   -0.5918    4.2303 C.ar     1 ZINC000000000509   -0.1200
16     C16     3.4131   -0.9609    5.1411 C.ar     1 ZINC000000000509   -0.1000
17     C17     2.1012   -1.0974    4.7254 C.ar     1 ZINC000000000509   -0.1100
18     C18     1.7885   -0.8174    3.4182 C.ar     1 ZINC000000000509   -0.1500
19     C19     2.7582   -0.3926    2.4976 C.ar     1 ZINC000000000509   -0.0900
20     C20     2.1668    0.0424    1.1933 C.3      1 ZINC000000000509    0.1700
21     H21     2.0725    1.1266    1.2544 H        1 ZINC000000000509    0.0600
22     C22     0.7246   -0.4963    1.1771 C.3      1 ZINC000000000509   -0.0200
23     H23     1.0047    1.8421    0.0024 H        1 ZINC000000000509    0.1200
24     H24    -0.5450    1.8259   -0.8730 H        1 ZINC000000000509    0.1300
25     H25    -0.5280    1.8163    0.9069 H        1 ZINC000000000509    0.1300
26     H26     0.8043   -1.5708   -1.1563 H        1 ZINC000000000509    0.1400
27     H27     0.1489   -0.2007   -2.0908 H        1 ZINC000000000509    0.1400
28     H28     2.6261   -0.1863   -2.1109 H        1 ZINC000000000509    0.1500
29     H29     1.9808    1.2401   -1.2698 H        1 ZINC000000000509    0.0800
30     H30     5.4933    1.4660   -3.0006 H        1 ZINC000000000509    0.1700
31     H31     7.5405    1.3335   -1.6141 H        1 ZINC000000000509    0.1500
32     H32     7.3487    0.5521    0.7176 H        1 ZINC000000000509    0.1400
33     H33     5.9369   -0.8737    2.2064 H        1 ZINC000000000509    0.1000
34     H34     5.7345    0.8213    2.5207 H        1 ZINC000000000509    0.0900
35     H35     5.3933   -0.4959    4.5592 H        1 ZINC000000000509    0.1300
36     H36     3.6815   -1.1432    6.1712 H        1 ZINC000000000509    0.1400
37     H37     1.3362   -1.4189    5.4167 H        1 ZINC000000000509    0.1300
38     H38     0.7659   -0.9277    3.0887 H        1 ZINC000000000509    0.1300
39     H39     0.2089   -0.1688    2.0799 H        1 ZINC000000000509    0.1600
40     H40     0.7486   -1.5857    1.1535 H        1 ZINC000000000509    0.1400
@<TRIPOS>BOND
1     1     2     1
2     1     23    1
3     1     24    1
4     1     25    1
5     2     3     1
6     2     22    1
7     2     4     1
8     4     5     1
9     4     26    1
10    4     27    1
11    5     6     1
12    5     28    1
13    5     29    1
14    6     20    1
15    6     7     1
16    7     12    ar
17    7     8     ar
18    8     9     ar
19    9     10    ar
20    9     30    1
21    10    11    ar
22    10    31    1
23    11    12    ar
24    11    32    1
25    12    13    1
26    13    14    1
27    13    33    1
28    13    34    1
29    14    19    ar
30    14    15    ar
31    15    16    ar
32    15    35    1
33    16    17    ar
34    16    36    1
35    17    18    ar
36    17    37    1
37    18    19    ar
38    18    38    1
39    19    20    1
40    20    21    1
41    20    22    1
42    22    39    1
43    22    40    1
@<TRIPOS>SUBSTRUCTURE
1   ZINC000000000509 1     RESIDUE    1   A     ZIN   1
