@<TRIPOS>MOLECULE
ZINC000085537014
108   112   1     0     0
SMALL
USER_CHARGES
@<TRIPOS>ATOM
1      C1     -0.0187    1.5258    0.0104 C.3      1 ZINC000085537014   -0.1500
2      C2      0.0021   -0.0041    0.0020 C.3      1 ZINC000085537014   -0.0300
3      C3      0.7421   -0.5109    1.2415 C.3      1 ZINC000085537014   -0.1500
4      C4     -1.4117   -0.5257    0.0127 C.2      1 ZINC000085537014    0.0700
5      N5     -1.9287   -1.2769   -0.9001 N.2      1 ZINC000085537014   -0.4700
6      C6     -3.1831   -1.6457   -0.7354 C.2      1 ZINC000085537014    0.0500
7      C7     -3.9115   -2.5217   -1.7220 C.3      1 ZINC000085537014    0.2000
8      N8     -4.4673   -1.6922   -2.7940 N.am     1 ZINC000085537014   -0.6100
9      C9     -3.6740   -1.4193   -3.9951 C.3      1 ZINC000085537014    0.0700
10     C10    -5.7083   -1.1803   -2.6754 C.2      1 ZINC000085537014    0.7100
11     O11    -6.3667   -1.4068   -1.6786 O.2      1 ZINC000085537014   -0.6000
12     N12    -6.2197   -0.4172   -3.6617 N.am     1 ZINC000085537014   -0.7300
13     C13    -7.5687    0.1393   -3.5327 C.3      1 ZINC000085537014    0.1500
14     H14    -8.2052   -0.5698   -3.0034 H        1 ZINC000085537014    0.1200
15     C15    -7.5062    1.4519   -2.7492 C.3      1 ZINC000085537014   -0.1600
16     C16    -7.0461    1.1699   -1.3175 C.3      1 ZINC000085537014    0.0000
17     N17    -6.9860    2.4303   -0.5653 N.4      1 ZINC000085537014   -0.3900
18     H18    -6.3969    3.0868   -1.0552 H        1 ZINC000085537014    0.4200
19     C19    -6.4313    2.1770    0.7716 C.3      1 ZINC000085537014   -0.0400
20     C20    -6.3695    3.4916    1.5532 C.3      1 ZINC000085537014    0.0400
21     O21    -7.6808    4.0582    1.6273 O.3      1 ZINC000085537014   -0.3500
22     C22    -8.2738    4.3014    0.3486 C.3      1 ZINC000085537014    0.0400
23     C23    -8.3391    2.9884   -0.4355 C.3      1 ZINC000085537014   -0.0500
24     C24    -8.1381    0.3991   -4.9036 C.2      1 ZINC000085537014    0.5100
25     O25    -7.4816    0.1446   -5.8911 O.2      1 ZINC000085537014   -0.4900
26     N26    -9.3768    0.9144   -5.0322 N.am     1 ZINC000085537014   -0.7200
27     C27    -9.9303    1.1671   -6.3649 C.3      1 ZINC000085537014    0.1600
28     H28    -9.1323    1.4864   -7.0352 H        1 ZINC000085537014    0.1000
29     C29   -10.9920    2.2652   -6.2764 C.3      1 ZINC000085537014   -0.1300
30     C30   -10.3320    3.5800   -5.8564 C.3      1 ZINC000085537014   -0.1200
31     C31   -11.3937    4.6781   -5.7679 C.3      1 ZINC000085537014    0.1700
32     H32   -11.9285    4.7436   -6.7154 H        1 ZINC000085537014    0.1000
33     C33   -10.7179    6.0181   -5.4701 C.3      1 ZINC000085537014   -0.0900
34     C34   -11.7471    7.1184   -5.5044 C.ar     1 ZINC000085537014   -0.0700
35     C35   -12.0175    7.7752   -6.6903 C.ar     1 ZINC000085537014   -0.1000
36     C36   -12.9616    8.7844   -6.7217 C.ar     1 ZINC000085537014   -0.1100
37     C37   -13.6356    9.1366   -5.5674 C.ar     1 ZINC000085537014   -0.1200
38     C38   -13.3659    8.4791   -4.3816 C.ar     1 ZINC000085537014   -0.1200
39     C39   -12.4249    7.4670   -4.3511 C.ar     1 ZINC000085537014   -0.1100
40     N40   -12.3385    4.3586   -4.6948 N.am     1 ZINC000085537014   -0.7100
41     C41   -13.5921    4.8521   -4.7317 C.2      1 ZINC000085537014    0.6500
42     O42   -13.9387    5.5620   -5.6549 O.2      1 ZINC000085537014   -0.5400
43     O43   -14.4604    4.5584   -3.7455 O.3      1 ZINC000085537014   -0.3700
44     C44   -15.7934    5.1245   -3.8506 C.3      1 ZINC000085537014    0.1700
45     C45   -16.6183    4.6903   -2.6666 C.2      1 ZINC000085537014   -0.2500
46     C46   -16.7257    5.3386   -1.5029 C.2      1 ZINC000085537014    0.0700
47     N47   -17.5113    4.7532   -0.6216 N.2      1 ZINC000085537014   -0.4700
48     C48   -18.0726    3.6471   -0.9770 C.2      1 ZINC000085537014    0.0300
49     S49   -17.6177    3.2420   -2.5746 S.3      1 ZINC000085537014    0.1500
50     C50   -10.5668   -0.1155   -6.9043 C.3      1 ZINC000085537014   -0.1000
51     C51    -9.4989   -1.1593   -7.1074 C.ar     1 ZINC000085537014   -0.0700
52     C52    -8.8386   -1.2459   -8.3188 C.ar     1 ZINC000085537014   -0.1100
53     C53    -7.8591   -2.2034   -8.5051 C.ar     1 ZINC000085537014   -0.1100
54     C54    -7.5396   -3.0739   -7.4799 C.ar     1 ZINC000085537014   -0.1200
55     C55    -8.1993   -2.9866   -6.2682 C.ar     1 ZINC000085537014   -0.1100
56     C56    -9.1758   -2.0264   -6.0805 C.ar     1 ZINC000085537014   -0.1200
57     C57    -3.7561   -1.1798    0.3783 C.2      1 ZINC000085537014   -0.2500
58     S58    -2.5607   -0.2138    1.2399 S.3      1 ZINC000085537014    0.1100
59     H59     1.0039    1.9031    0.0027 H        1 ZINC000085537014    0.0800
60     H60    -0.5459    1.8868   -0.8726 H        1 ZINC000085537014    0.0600
61     H61    -0.5289    1.8773    0.9072 H        1 ZINC000085537014    0.0600
62     H62     0.5123   -0.3556   -0.8948 H        1 ZINC000085537014    0.1000
63     H63     0.7568   -1.6008    1.2356 H        1 ZINC000085537014    0.0600
64     H64     1.7647   -0.1336    1.2338 H        1 ZINC000085537014    0.0800
65     H65     0.2319   -0.1594    2.1383 H        1 ZINC000085537014    0.0600
66     H66    -3.2167   -3.2465   -2.1464 H        1 ZINC000085537014    0.1000
67     H67    -4.7195   -3.0476   -1.2134 H        1 ZINC000085537014    0.1100
68     H68    -3.8663   -2.1909   -4.7406 H        1 ZINC000085537014    0.0700
69     H69    -3.9509   -0.4459   -4.3999 H        1 ZINC000085537014    0.0600
70     H70    -2.6147   -1.4181   -3.7383 H        1 ZINC000085537014    0.0900
71     H71    -5.6944   -0.2365   -4.4569 H        1 ZINC000085537014    0.4100
72     H72    -6.8008    2.1292   -3.2308 H        1 ZINC000085537014    0.1000
73     H73    -8.4947    1.9107   -2.7295 H        1 ZINC000085537014    0.1000
74     H74    -7.7514    0.4926   -0.8360 H        1 ZINC000085537014    0.1400
75     H75    -6.0575    0.7111   -1.3373 H        1 ZINC000085537014    0.1400
76     H76    -7.0682    1.4686    1.3013 H        1 ZINC000085537014    0.1400
77     H77    -5.4274    1.7631    0.6763 H        1 ZINC000085537014    0.1400
78     H78    -5.9987    3.2994    2.5600 H        1 ZINC000085537014    0.1400
79     H79    -5.7010    4.1864    1.0448 H        1 ZINC000085537014    0.0800
80     H80    -9.2812    4.6952    0.4836 H        1 ZINC000085537014    0.1400
81     H81    -7.6705    5.0238   -0.2010 H        1 ZINC000085537014    0.0800
82     H82    -8.7515    3.1769   -1.4267 H        1 ZINC000085537014    0.1400
83     H83    -8.9752    2.2795    0.0946 H        1 ZINC000085537014    0.1400
84     H84    -9.9018    1.1180   -4.2424 H        1 ZINC000085537014    0.4000
85     H85   -11.4662    2.3914   -7.2497 H        1 ZINC000085537014    0.0900
86     H86   -11.7444    1.9846   -5.5394 H        1 ZINC000085537014    0.0700
87     H87    -9.8578    3.4538   -4.8831 H        1 ZINC000085537014    0.0700
88     H88    -9.5796    3.8606   -6.5934 H        1 ZINC000085537014    0.0900
89     H89   -10.2579    5.9815   -4.4826 H        1 ZINC000085537014    0.0700
90     H90    -9.9520    6.2135   -6.2207 H        1 ZINC000085537014    0.0800
91     H91   -11.4909    7.5001   -7.5922 H        1 ZINC000085537014    0.1200
92     H92   -13.1723    9.2981   -7.6481 H        1 ZINC000085537014    0.1200
93     H93   -14.3727    9.9256   -5.5918 H        1 ZINC000085537014    0.1200
94     H94   -13.8923    8.7545   -3.4797 H        1 ZINC000085537014    0.1100
95     H95   -12.2141    6.9533   -3.4248 H        1 ZINC000085537014    0.1100
96     H96   -12.0618    3.7919   -3.9578 H        1 ZINC000085537014    0.4000
97     H97   -15.7259    6.2123   -3.8671 H        1 ZINC000085537014    0.0900
98     H98   -16.2648    4.7757   -4.7694 H        1 ZINC000085537014    0.0900
99     H99   -16.2108    6.2663   -1.3014 H        1 ZINC000085537014    0.1800
100    H100  -18.7373    3.0641   -0.3569 H        1 ZINC000085537014    0.2000
101    H101  -11.3035   -0.4835   -6.1903 H        1 ZINC000085537014    0.0800
102    H102  -11.0558    0.0939   -7.8557 H        1 ZINC000085537014    0.0900
103    H103   -9.0883   -0.5658   -9.1197 H        1 ZINC000085537014    0.1200
104    H104   -7.3437   -2.2715   -9.4517 H        1 ZINC000085537014    0.1200
105    H105   -6.7748   -3.8224   -7.6257 H        1 ZINC000085537014    0.1200
106    H106   -7.9499   -3.6670   -5.4674 H        1 ZINC000085537014    0.1100
107    H107   -9.6912   -1.9582   -5.1339 H        1 ZINC000085537014    0.1000
108    H108   -4.7715   -1.3656    0.6960 H        1 ZINC000085537014    0.1800
@<TRIPOS>BOND
1     1     2     1
2     1     59    1
3     1     60    1
4     1     61    1
5     2     3     1
6     2     4     1
7     2     62    1
8     3     63    1
9     3     64    1
10    3     65    1
11    4     58    1
12    4     5     2
13    5     6     1
14    6     7     1
15    6     57    2
16    7     8     1
17    7     66    1
18    7     67    1
19    8     9     1
20    8     10    am
21    9     68    1
22    9     69    1
23    9     70    1
24    10    11    2
25    10    12    am
26    12    13    1
27    12    71    1
28    13    14    1
29    13    15    1
30    13    24    1
31    15    16    1
32    15    72    1
33    15    73    1
34    16    17    1
35    16    74    1
36    16    75    1
37    17    18    1
38    17    23    1
39    17    19    1
40    19    20    1
41    19    76    1
42    19    77    1
43    20    21    1
44    20    78    1
45    20    79    1
46    21    22    1
47    22    23    1
48    22    80    1
49    22    81    1
50    23    82    1
51    23    83    1
52    24    25    2
53    24    26    am
54    26    27    1
55    26    84    1
56    27    28    1
57    27    29    1
58    27    50    1
59    29    30    1
60    29    85    1
61    29    86    1
62    30    31    1
63    30    87    1
64    30    88    1
65    31    32    1
66    31    33    1
67    31    40    1
68    33    34    1
69    33    89    1
70    33    90    1
71    34    39    ar
72    34    35    ar
73    35    36    ar
74    35    91    1
75    36    37    ar
76    36    92    1
77    37    38    ar
78    37    93    1
79    38    39    ar
80    38    94    1
81    39    95    1
82    40    41    am
83    40    96    1
84    41    42    2
85    41    43    1
86    43    44    1
87    44    45    1
88    44    97    1
89    44    98    1
90    45    49    1
91    45    46    2
92    46    47    1
93    46    99    1
94    47    48    2
95    48    49    1
96    48    100   1
97    50    51    1
98    50    101   1
99    50    102   1
100   51    56    ar
101   51    52    ar
102   52    53    ar
103   52    103   1
104   53    54    ar
105   53    104   1
106   54    55    ar
107   54    105   1
108   55    56    ar
109   55    106   1
110   56    107   1
111   57    58    1
112   57    108   1
@<TRIPOS>SUBSTRUCTURE
1   ZINC000085537014 1     RESIDUE    1   A     ZIN   1
