@<TRIPOS>MOLECULE
ZINC000001531036
27   26    0    0    0
SMALL
USER_CHARGES
NO_NAME
@<TRIPOS>ATOM
1 O1        0.0021    -0.0041     0.0020 O.co2  1 <0>      -0.7000
2 C2       -0.0145     1.2150     0.0087 C.2    1 <0>       0.4900
3 O3        1.0330     1.8389     0.0021 O.co2  1 <0>      -0.7200
4 C4       -1.3296     1.9507     0.0190 C.3    1 <0>      -0.1800
5 C5       -2.4790     0.9408     0.0189 C.3    1 <0>      -0.0900
6 C6       -3.8142     1.6877     0.0293 C.3    1 <0>      -0.1200
7 C7       -4.9635     0.6777     0.0293 C.3    1 <0>      -0.1200
8 C8       -6.2988     1.4246     0.0397 C.3    1 <0>      -0.1200
9 C9       -7.4481     0.4147     0.0396 C.3    1 <0>      -0.0900
10 C10      -8.7834     1.1616     0.0500 C.3    1 <0>      -0.1800
11 C11      -9.9154     0.1669     0.0500 C.2    1 <0>       0.4900
12 O12      -9.6764    -1.0287     0.0424 O.co2  1 <0>      -0.7000
13 O13     -11.0703     0.5576     0.0576 O.co2  1 <0>      -0.7200
14 H14      -1.3917     2.5717     0.9126 H      1 <0>       0.0500
15 H15      -1.4001     2.5813    -0.8673 H      1 <0>       0.0500
16 H16      -2.4169     0.3198    -0.8748 H      1 <0>       0.0600
17 H17      -2.4085     0.3101     0.9052 H      1 <0>       0.0600
18 H18      -3.8762     2.3086     0.9230 H      1 <0>       0.0500
19 H19      -3.8847     2.3183    -0.8569 H      1 <0>       0.0500
20 H20      -4.9015     0.0568    -0.8644 H      1 <0>       0.0600
21 H21      -4.8931     0.0471     0.9155 H      1 <0>       0.0600
22 H22      -6.3608     2.0456     0.9333 H      1 <0>       0.0500
23 H23      -6.3692     2.0553    -0.8466 H      1 <0>       0.0500
24 H24      -7.3861    -0.2063    -0.8540 H      1 <0>       0.0600
25 H25      -7.3777    -0.2159     0.9259 H      1 <0>       0.0600
26 H26      -8.8454     1.7826     0.9437 H      1 <0>       0.0500
27 H27      -8.8538     1.7923    -0.8362 H      1 <0>       0.0500
@<TRIPOS>BOND
1    1    2 ar
2    2    3 ar
3    2    4 1
4    4    5 1
5    4   14 1
6    4   15 1
7    5    6 1
8    5   16 1
9    5   17 1
10    6    7 1
11    6   18 1
12    6   19 1
13    7    8 1
14    7   20 1
15    7   21 1
16    8    9 1
17    8   22 1
18    8   23 1
19    9   10 1
20    9   24 1
21    9   25 1
22   10   11 1
23   10   26 1
24   10   27 1
25   11   12 ar
26   11   13 ar
