@<TRIPOS>MOLECULE
ZINC000000538564
43    44    1     0     0
SMALL
USER_CHARGES
@<TRIPOS>ATOM
1      C1     -0.0069    1.5195    0.0194 C.3      1 ZINC000000538564   -0.1800
2      C2      0.0046   -0.0104    0.0028 C.3      1 ZINC000000538564    0.1400
3      O3      0.6943   -0.4941    1.1571 O.3      1 ZINC000000538564   -0.5400
4      C4      0.7161   -0.5014   -1.2595 C.3      1 ZINC000000538564   -0.6400
5      S5      2.3715    0.2353   -1.3459 S.o2     1 ZINC000000538564    2.5200
6      O6      2.2832    1.6339   -1.5808 O.2      1 ZINC000000538564   -0.9200
7      O7      3.2026   -0.2837   -0.3167 O.2      1 ZINC000000538564   -0.9100
8      C8      3.0638   -0.4120   -2.8312 C.ar     1 ZINC000000538564   -0.6800
9      C9      3.7754   -1.5970   -2.8025 C.ar     1 ZINC000000538564    0.0100
10     C10     4.3188   -2.1056   -3.9669 C.ar     1 ZINC000000538564   -0.1700
11     C11     4.1501   -1.4282   -5.1626 C.ar     1 ZINC000000538564    0.1600
12     F12     4.6806   -1.9247   -6.3016 F        1 ZINC000000538564   -0.1300
13     C13     3.4369   -0.2418   -5.1902 C.ar     1 ZINC000000538564   -0.1700
14     C14     2.8902    0.2625   -4.0254 C.ar     1 ZINC000000538564    0.0100
15     C15    -1.4124   -0.5235    0.0126 C.2      1 ZINC000000538564    0.5000
16     O16    -1.9627   -0.8048   -1.0309 O.2      1 ZINC000000538564   -0.5000
17     N17    -2.0680   -0.6697    1.1810 N.am     1 ZINC000000538564   -0.6600
18     C18    -3.4099   -1.0527    1.1849 C.ar     1 ZINC000000538564    0.1700
19     C19    -3.8790   -1.9465    0.2281 C.ar     1 ZINC000000538564   -0.0900
20     C20    -5.2027   -2.3264    0.2286 C.ar     1 ZINC000000538564   -0.0500
21     C21    -6.0749   -1.8129    1.1923 C.ar     1 ZINC000000538564    0.0100
22     C22    -7.4519   -2.2059    1.1963 C.1      1 ZINC000000538564    0.2300
23     N23    -8.5443   -2.5177    1.1994 N.1      1 ZINC000000538564   -0.3700
24     C24    -5.5998   -0.9151    2.1527 C.ar     1 ZINC000000538564   -0.1200
25     C25    -6.5362   -0.3590    3.1943 C.3      1 ZINC000000538564    0.5100
26     F26    -5.8341    0.5101    4.0362 F        1 ZINC000000538564   -0.1700
27     F27    -7.5731    0.3378    2.5647 F        1 ZINC000000538564   -0.1700
28     F28    -7.0707   -1.4088    3.9489 F        1 ZINC000000538564   -0.1700
29     C29    -4.2740   -0.5439    2.1493 C.ar     1 ZINC000000538564   -0.0900
30     H30     1.0180    1.8906    0.0123 H        1 ZINC000000538564    0.1000
31     H31    -0.5330    1.8884   -0.8610 H        1 ZINC000000538564    0.1000
32     H32    -0.5138    1.8693    0.9187 H        1 ZINC000000538564    0.0900
33     H33     0.7404   -1.4584    1.2124 H        1 ZINC000000538564    0.3900
34     H34     0.8029   -1.5875   -1.2284 H        1 ZINC000000538564    0.1500
35     H35     0.1415   -0.2078   -2.1380 H        1 ZINC000000538564    0.1600
36     H36     3.9069   -2.1252   -1.8697 H        1 ZINC000000538564    0.1500
37     H37     4.8753   -3.0309   -3.9441 H        1 ZINC000000538564    0.1500
38     H38     3.3049    0.2876   -6.1223 H        1 ZINC000000538564    0.1500
39     H39     2.3335    1.1877   -4.0468 H        1 ZINC000000538564    0.1500
40     H40    -1.6072   -0.5088    2.0193 H        1 ZINC000000538564    0.4300
41     H41    -3.2044   -2.3429   -0.5164 H        1 ZINC000000538564    0.1600
42     H42    -5.5665   -3.0199   -0.5151 H        1 ZINC000000538564    0.1500
43     H43    -3.9061    0.1494    2.8912 H        1 ZINC000000538564    0.1600
@<TRIPOS>BOND
1     1     2     1
2     1     30    1
3     1     31    1
4     1     32    1
5     2     3     1
6     2     4     1
7     2     15    1
8     3     33    1
9     4     5     1
10    4     34    1
11    4     35    1
12    5     6     2
13    5     7     2
14    5     8     1
15    8     14    ar
16    8     9     ar
17    9     10    ar
18    9     36    1
19    10    11    ar
20    10    37    1
21    11    12    1
22    11    13    ar
23    13    14    ar
24    13    38    1
25    14    39    1
26    15    16    2
27    15    17    am
28    17    18    1
29    17    40    1
30    18    29    ar
31    18    19    ar
32    19    20    ar
33    19    41    1
34    20    21    ar
35    20    42    1
36    21    22    1
37    21    24    ar
38    22    23    3
39    24    25    1
40    24    29    ar
41    25    26    1
42    25    27    1
43    25    28    1
44    29    43    1
@<TRIPOS>SUBSTRUCTURE
1   ZINC000000538564 1     RESIDUE    1   A     ZIN   1
