@<TRIPOS>MOLECULE
ZINC000003812974
50   51    0    0    0
SMALL
USER_CHARGES
NO_NAME
@<TRIPOS>ATOM
1 C1       -0.0187     1.5258     0.0104 C.3    1 <0>      -0.1800
2 C2        0.0021    -0.0041     0.0020 C.3    1 <0>       0.0500
3 C3        0.7421    -0.5109     1.2415 C.3    1 <0>      -0.1800
4 C4       -1.4333    -0.5336     0.0129 C.3    1 <0>      -0.1800
5 N5        0.6897    -0.4778    -1.2066 N.4    1 <0>      -0.5000
6 H6        0.7033    -1.4867    -1.2121 H      1 <0>       0.4300
7 H7        0.2017    -0.1436    -2.0240 H      1 <0>       0.4300
8 C8        2.0678     0.0307    -1.2170 C.3    1 <0>      -0.0500
9 C9        2.7840    -0.4628    -2.4758 C.3    1 <0>       0.0900
10 H10       2.7213    -1.5498    -2.5270 H      1 <0>       0.1300
11 O11       2.1628     0.1050    -3.6307 O.3    1 <0>      -0.5400
12 C12       4.2531    -0.0383    -2.4263 C.3    1 <0>       0.0300
13 O13       4.9483    -0.5972    -3.5427 O.3    1 <0>      -0.3000
14 C14       6.2733    -0.3147    -3.6487 C.ar   1 <0>       0.1200
15 C15       6.8860     0.4781    -2.6935 C.ar   1 <0>      -0.2100
16 C16       8.2333     0.7648    -2.8031 C.ar   1 <0>      -0.0800
17 C17       8.9577     0.2622    -3.8642 C.ar   1 <0>      -0.1500
18 C18       8.3468    -0.5328    -4.8262 C.ar   1 <0>      -0.0400
19 C19       7.0081    -0.8300    -4.7155 C.ar   1 <0>      -0.0800
20 C20       6.2846    -1.6978    -5.7115 C.3    1 <0>      -0.1000
21 C21       7.0819    -1.8050    -7.0098 C.3    1 <0>       0.1100
22 H22       7.0855    -0.8412    -7.5189 H      1 <0>       0.0700
23 O23       6.4925    -2.7940    -7.8563 O.3    1 <0>      -0.5600
24 C24       8.5190    -2.2111    -6.6629 C.3    1 <0>       0.1100
25 H25       9.0613    -2.4579    -7.5757 H      1 <0>       0.0700
26 O26       8.5021    -3.3440    -5.7921 O.3    1 <0>      -0.5500
27 C27       9.1984    -1.0396    -5.9607 C.3    1 <0>      -0.1200
28 H28       1.0039     1.9031     0.0027 H      1 <0>       0.0800
29 H29      -0.5459     1.8868    -0.8726 H      1 <0>       0.0800
30 H30      -0.5289     1.8773     0.9072 H      1 <0>       0.1100
31 H31       0.2319    -0.1594     2.1383 H      1 <0>       0.1100
32 H32       0.7568    -1.6008     1.2356 H      1 <0>       0.0800
33 H33       1.7647    -0.1336     1.2338 H      1 <0>       0.0800
34 H34      -1.9605    -0.1726    -0.8702 H      1 <0>       0.0800
35 H35      -1.4185    -1.6235     0.0069 H      1 <0>       0.0800
36 H36      -1.9435    -0.1821     0.9097 H      1 <0>       0.1100
37 H37       2.0530     1.1205    -1.2110 H      1 <0>       0.1400
38 H38       2.5950    -0.3304    -0.3340 H      1 <0>       0.1500
39 H39       2.1814     1.0716    -3.6522 H      1 <0>       0.3900
40 H40       4.3186     1.0490    -2.4647 H      1 <0>       0.0800
41 H41       4.7039    -0.3970    -1.5010 H      1 <0>       0.0800
42 H42       6.3135     0.8710    -1.8664 H      1 <0>       0.1200
43 H43       8.7178     1.3811    -2.0603 H      1 <0>       0.1300
44 H44      10.0102     0.4893    -3.9481 H      1 <0>       0.1300
45 H45       6.1498    -2.6937    -5.2894 H      1 <0>       0.0900
46 H46       5.3080    -1.2632    -5.9244 H      1 <0>       0.0800
47 H47       5.5760    -2.6066    -8.1011 H      1 <0>       0.3800
48 H48       9.3806    -3.6538    -5.5326 H      1 <0>       0.3800
49 H49       9.3508    -0.2312    -6.6759 H      1 <0>       0.0900
50 H50      10.1648    -1.3636    -5.5742 H      1 <0>       0.0900
@<TRIPOS>BOND
1    1    2 1
2    1   28 1
3    1   29 1
4    1   30 1
5    2    3 1
6    2    4 1
7    2    5 1
8    3   31 1
9    3   32 1
10    3   33 1
11    4   34 1
12    4   35 1
13    4   36 1
14    5    6 1
15    5    7 1
16    5    8 1
17    8    9 1
18    8   37 1
19    8   38 1
20    9   10 1
21    9   11 1
22    9   12 1
23   11   39 1
24   12   13 1
25   12   40 1
26   12   41 1
27   13   14 1
28   14   19 ar
29   14   15 ar
30   15   16 ar
31   15   42 1
32   16   17 ar
33   16   43 1
34   17   18 ar
35   17   44 1
36   18   27 1
37   18   19 ar
38   19   20 1
39   20   21 1
40   20   45 1
41   20   46 1
42   21   22 1
43   21   23 1
44   21   24 1
45   23   47 1
46   24   25 1
47   24   26 1
48   24   27 1
49   26   48 1
50   27   49 1
51   27   50 1
