@<TRIPOS>MOLECULE
ZINC000094566092
59    63    1     0     0
SMALL
USER_CHARGES
@<TRIPOS>ATOM
1      C1     -0.0173    1.4248    0.0099 C.3      1 ZINC000094566092    0.0100
2      O2      0.0021   -0.0041    0.0020 O.3      1 ZINC000094566092   -0.2800
3      C3      0.6256   -0.6181    1.0411 C.ar     1 ZINC000094566092    0.2200
4      C4      0.6825   -2.0175    1.0863 C.ar     1 ZINC000094566092    0.1200
5      O5      0.1124   -2.7464    0.0894 O.3      1 ZINC000094566092   -0.2900
6      C6      0.2037   -4.1688    0.1920 C.3      1 ZINC000094566092    0.0100
7      C7      1.3047   -2.6578    2.1202 C.ar     1 ZINC000094566092   -0.1200
8      C8      1.8920   -1.9089    3.1471 C.ar     1 ZINC000094566092   -0.1800
9      C9      2.5488   -2.5256    4.2398 C.ar     1 ZINC000094566092    0.5500
10     N10     2.6328   -3.8995    4.3299 N.pl3    1 ZINC000094566092   -0.7700
11     N11     3.0811   -1.7503    5.1734 N.ar     1 ZINC000094566092   -0.5800
12     C12     3.0078   -0.4242    5.0989 C.ar     1 ZINC000094566092    0.6300
13     N13     3.5844    0.3295    6.1062 N.3      1 ZINC000094566092   -0.4700
14     C14     4.5554    1.2858    5.5580 C.3      1 ZINC000094566092    0.0300
15     C15     5.0346    2.2190    6.6751 C.3      1 ZINC000094566092    0.1200
16     N16     5.5319    1.3974    7.7890 N.am     1 ZINC000094566092   -0.6200
17     C17     6.7484    1.6211    8.3243 C.2      1 ZINC000094566092    0.5300
18     O18     7.4489    2.5096    7.8878 O.2      1 ZINC000094566092   -0.4900
19     C19     7.2381    0.7671    9.4654 C.3      1 ZINC000094566092    0.0300
20     H20     7.1950   -0.2846    9.1821 H        1 ZINC000094566092    0.1100
21     C21     6.3630    1.0060   10.7032 C.3      1 ZINC000094566092    0.0300
22     O22     6.8629    0.1918   11.7696 O.3      1 ZINC000094566092   -0.3000
23     C23     8.2095    0.2022   11.9671 C.ar     1 ZINC000094566092    0.0400
24     C24     8.7243   -0.2542   13.1710 C.ar     1 ZINC000094566092   -0.1100
25     C25    10.0900   -0.2528   13.3851 C.ar     1 ZINC000094566092   -0.1100
26     C26    10.9459    0.2025   12.4001 C.ar     1 ZINC000094566092   -0.1100
27     C27    10.4391    0.6603   11.1981 C.ar     1 ZINC000094566092   -0.1100
28     C28     9.0701    0.6636   10.9777 C.ar     1 ZINC000094566092    0.0500
29     O29     8.5856    1.1242    9.7919 O.3      1 ZINC000094566092   -0.2800
30     C30     4.6666    0.3249    8.3030 C.3      1 ZINC000094566092    0.0900
31     C31     4.2018   -0.5337    7.1219 C.3      1 ZINC000094566092    0.0500
32     N32     2.4088    0.2021    4.1047 N.ar     1 ZINC000094566092   -0.5500
33     H33     2.3807    1.1717    4.0930 H        1 ZINC000094566092    0.4400
34     C34     1.8380   -0.4940    3.1085 C.ar     1 ZINC000094566092    0.2100
35     C35     1.2002    0.1417    2.0365 C.ar     1 ZINC000094566092   -0.2300
36     H36     1.0053    1.8021    0.0021 H        1 ZINC000094566092    0.0700
37     H37    -0.5445    1.7859   -0.8732 H        1 ZINC000094566092    0.1200
38     H38    -0.5275    1.7763    0.9067 H        1 ZINC000094566092    0.0700
39     H39    -0.2900   -4.6273   -0.6648 H        1 ZINC000094566092    0.1200
40     H40     1.2524   -4.4653    0.2087 H        1 ZINC000094566092    0.0600
41     H41    -0.2818   -4.4987    1.1105 H        1 ZINC000094566092    0.0600
42     H42     1.3430   -3.7368    2.1456 H        1 ZINC000094566092    0.1600
43     H43     2.2393   -4.4557    3.6395 H        1 ZINC000094566092    0.4300
44     H44     3.0855   -4.3093    5.0835 H        1 ZINC000094566092    0.4300
45     H45     5.4069    0.7440    5.1463 H        1 ZINC000094566092    0.0800
46     H46     4.0826    1.8734    4.7710 H        1 ZINC000094566092    0.1000
47     H47     5.8377    2.8545    6.3019 H        1 ZINC000094566092    0.1200
48     H48     4.2044    2.8365    7.0177 H        1 ZINC000094566092    0.0900
49     H49     6.4103    2.0566   10.9896 H        1 ZINC000094566092    0.0900
50     H50     5.3316    0.7306   10.4829 H        1 ZINC000094566092    0.1300
51     H51     8.0577   -0.6107   13.9423 H        1 ZINC000094566092    0.1400
52     H52    10.4889   -0.6085   14.3236 H        1 ZINC000094566092    0.1400
53     H53    12.0125    0.2011   12.5698 H        1 ZINC000094566092    0.1400
54     H54    11.1101    1.0155   10.4300 H        1 ZINC000094566092    0.1400
55     H55     5.2263   -0.2919    9.0061 H        1 ZINC000094566092    0.1100
56     H56     3.8009    0.7603    8.8021 H        1 ZINC000094566092    0.1000
57     H57     3.4726   -1.2658    7.4690 H        1 ZINC000094566092    0.1200
58     H58     5.0582   -1.0502    6.6884 H        1 ZINC000094566092    0.0800
59     H59     1.1557    1.2198    1.9921 H        1 ZINC000094566092    0.1700
@<TRIPOS>BOND
1     1     2     1
2     1     36    1
3     1     37    1
4     1     38    1
5     2     3     1
6     3     35    ar
7     3     4     ar
8     4     5     1
9     4     7     ar
10    5     6     1
11    6     39    1
12    6     40    1
13    6     41    1
14    7     8     ar
15    7     42    1
16    8     34    ar
17    8     9     ar
18    9     10    1
19    9     11    ar
20    10    43    1
21    10    44    1
22    11    12    ar
23    12    13    1
24    12    32    ar
25    13    31    1
26    13    14    1
27    14    15    1
28    14    45    1
29    14    46    1
30    15    16    1
31    15    47    1
32    15    48    1
33    16    17    am
34    16    30    1
35    17    18    2
36    17    19    1
37    19    20    1
38    19    29    1
39    19    21    1
40    21    22    1
41    21    49    1
42    21    50    1
43    22    23    1
44    23    28    ar
45    23    24    ar
46    24    25    ar
47    24    51    1
48    25    26    ar
49    25    52    1
50    26    27    ar
51    26    53    1
52    27    28    ar
53    27    54    1
54    28    29    1
55    30    31    1
56    30    55    1
57    30    56    1
58    31    57    1
59    31    58    1
60    32    33    1
61    32    34    ar
62    34    35    ar
63    35    59    1
@<TRIPOS>SUBSTRUCTURE
1   ZINC000094566092 1     RESIDUE    1   A     ZIN   1
