@<TRIPOS>MOLECULE
ZINC000000901736
18   18    0    0    0
SMALL
USER_CHARGES
NO_NAME
@<TRIPOS>ATOM
1 O1        0.0021    -0.0041     0.0020 O.co2  1 <0>      -0.6700
2 C2       -0.0145     1.2150     0.0087 C.2    1 <0>       0.4900
3 O3        1.0330     1.8389     0.0021 O.co2  1 <0>      -0.6300
4 C4       -1.3296     1.9507     0.0190 C.3    1 <0>      -0.0500
5 H5       -1.4125     2.5743    -0.8712 H      1 <0>       0.1400
6 C6       -1.4311     2.8270     1.2851 C.3    1 <0>      -0.1100
7 C7       -2.9219     2.6845     1.6902 C.3    1 <0>       0.0900
8 H8       -3.5494     3.3663     1.1162 H      1 <0>       0.0900
9 O9       -3.0934     2.8939     3.0934 O.3    1 <0>      -0.5400
10 C10      -3.2102     1.2110     1.3090 C.3    1 <0>      -0.0400
11 N11      -2.4438     0.9859     0.0609 N.4    1 <0>      -0.4900
12 H12      -3.0461     1.1229    -0.7369 H      1 <0>       0.4200
13 H13      -2.0767     0.0461     0.0527 H      1 <0>       0.4300
14 H14      -0.7799     2.4451     2.0714 H      1 <0>       0.1000
15 H15      -1.1918     3.8653     1.0554 H      1 <0>       0.1100
16 H16      -4.0091     2.8149     3.3938 H      1 <0>       0.3900
17 H17      -2.8630     0.5407     2.0952 H      1 <0>       0.1300
18 H18      -4.2757     1.0670     1.1295 H      1 <0>       0.1300
@<TRIPOS>BOND
1    1    2 ar
2    2    3 ar
3    2    4 1
4    4    5 1
5    4   11 1
6    4    6 1
7    6    7 1
8    6   14 1
9    6   15 1
10    7    8 1
11    7    9 1
12    7   10 1
13    9   16 1
14   10   11 1
15   10   17 1
16   10   18 1
17   11   12 1
18   11   13 1
