@<TRIPOS>MOLECULE
ZINC000019796168
64    67    1     0     0
SMALL
USER_CHARGES
@<TRIPOS>ATOM
1      C1     -0.0187    1.5258    0.0104 C.3      1 ZINC000019796168   -0.1500
2      C2      0.0021   -0.0041    0.0020 C.3      1 ZINC000019796168   -0.1100
3      C3      0.7421   -0.5109    1.2415 C.3      1 ZINC000019796168   -0.0400
4      C4      0.7625   -2.0177    1.2333 C.2      1 ZINC000019796168    0.1100
5      N5     -0.1438   -2.7937    1.7634 N.2      1 ZINC000019796168   -0.2300
6      N6      0.2114   -4.1335    1.5590 N.pl3    1 ZINC000019796168   -0.3300
7      C7     -0.5484   -5.3043    2.0040 C.3      1 ZINC000019796168    0.1000
8      C8      1.3924   -4.1551    0.8703 C.2      1 ZINC000019796168   -0.0300
9      C9      1.7594   -2.8217    0.6470 C.2      1 ZINC000019796168    0.0400
10     N10     2.9000   -2.5515   -0.0193 N.2      1 ZINC000019796168   -0.4200
11     C11     3.6706   -3.5155   -0.4614 C.2      1 ZINC000019796168    0.3800
12     C12     4.9095   -3.1672   -1.1850 C.ar     1 ZINC000019796168   -0.1000
13     C13     5.7450   -4.1742   -1.6712 C.ar     1 ZINC000019796168    0.0300
14     C14     6.9008   -3.8424   -2.3462 C.ar     1 ZINC000019796168   -0.7300
15     S15     7.9545   -5.1146   -2.9594 S.o2     1 ZINC000019796168    2.6900
16     O16     9.2476   -4.5390   -3.0845 O.2      1 ZINC000019796168   -0.9300
17     O17     7.6901   -6.2683   -2.1731 O.2      1 ZINC000019796168   -0.9300
18     N18     7.4503   -5.4704   -4.4961 N.am     1 ZINC000019796168   -1.0100
19     C19     6.4293   -6.5017   -4.7375 C.3      1 ZINC000019796168    0.1000
20     C20     5.3451   -5.9090   -5.6436 C.3      1 ZINC000019796168   -0.0200
21     N21     5.9656   -5.3737   -6.8620 N.4      1 ZINC000019796168   -0.3800
22     H22     6.5020   -6.1002   -7.3119 H        1 ZINC000019796168    0.4300
23     C23     4.9172   -4.9034   -7.7772 C.3      1 ZINC000019796168   -0.0500
24     C24     6.8515   -4.2533   -6.5212 C.3      1 ZINC000019796168   -0.0200
25     C25     8.0062   -4.7600   -5.6581 C.3      1 ZINC000019796168    0.1000
26     C26     7.2366   -2.5140   -2.5446 C.ar     1 ZINC000019796168    0.0400
27     C27     6.4181   -1.5079   -2.0683 C.ar     1 ZINC000019796168   -0.2300
28     C28     5.2502   -1.8240   -1.3925 C.ar     1 ZINC000019796168    0.2500
29     O29     4.4452   -0.8365   -0.9241 O.3      1 ZINC000019796168   -0.2500
30     C30     4.8629    0.5090   -1.1631 C.3      1 ZINC000019796168    0.0400
31     C31     3.8370    1.4750   -0.5668 C.3      1 ZINC000019796168   -0.1500
32     N32     3.3613   -4.8352   -0.2718 N.am     1 ZINC000019796168   -0.6300
33     C33     2.2318   -5.1838    0.3834 C.2      1 ZINC000019796168    0.5700
34     O34     1.9476   -6.3562    0.5574 O.2      1 ZINC000019796168   -0.5200
35     H35     1.0039    1.9031    0.0027 H        1 ZINC000019796168    0.0600
36     H36    -0.5459    1.8868   -0.8726 H        1 ZINC000019796168    0.0600
37     H37    -0.5289    1.8773    0.9072 H        1 ZINC000019796168    0.0600
38     H38    -1.0205   -0.3814    0.0098 H        1 ZINC000019796168    0.0600
39     H39     0.5123   -0.3556   -0.8948 H        1 ZINC000019796168    0.0600
40     H40     1.7647   -0.1336    1.2338 H        1 ZINC000019796168    0.0900
41     H41     0.2319   -0.1594    2.1383 H        1 ZINC000019796168    0.0900
42     H42    -1.2546   -5.5961    1.2266 H        1 ZINC000019796168    0.0800
43     H43     0.1367   -6.1289    2.2006 H        1 ZINC000019796168    0.1000
44     H44    -1.0928   -5.0590    2.9159 H        1 ZINC000019796168    0.1000
45     H45     5.4867   -5.2117   -1.5186 H        1 ZINC000019796168    0.1400
46     H46     6.8860   -7.3618   -5.2271 H        1 ZINC000019796168    0.1100
47     H47     5.9871   -6.8082   -3.7895 H        1 ZINC000019796168    0.1300
48     H48     4.6301   -6.6870   -5.9115 H        1 ZINC000019796168    0.1500
49     H49     4.8289   -5.1069   -5.1160 H        1 ZINC000019796168    0.1300
50     H50     4.3349   -4.1207   -7.2912 H        1 ZINC000019796168    0.1200
51     H51     5.3765   -4.5057   -8.6822 H        1 ZINC000019796168    0.1300
52     H52     4.2623   -5.7350   -8.0375 H        1 ZINC000019796168    0.1300
53     H53     7.2465   -3.8112   -7.4358 H        1 ZINC000019796168    0.1500
54     H54     6.2897   -3.5013   -5.9671 H        1 ZINC000019796168    0.1300
55     H55     8.6083   -3.9166   -5.3201 H        1 ZINC000019796168    0.1400
56     H56     8.6239   -5.4455   -6.2384 H        1 ZINC000019796168    0.1100
57     H57     8.1436   -2.2628   -3.0743 H        1 ZINC000019796168    0.1500
58     H58     6.6867   -0.4739   -2.2266 H        1 ZINC000019796168    0.1500
59     H59     5.8336    0.6765   -0.6965 H        1 ZINC000019796168    0.0700
60     H60     4.9414    0.6798   -2.2367 H        1 ZINC000019796168    0.0700
61     H61     2.8663    1.3075   -1.0333 H        1 ZINC000019796168    0.0700
62     H62     3.7585    1.3042    0.5069 H        1 ZINC000019796168    0.0700
63     H63     4.1556    2.5013   -0.7491 H        1 ZINC000019796168    0.0800
64     H64     3.9539   -5.5236   -0.6121 H        1 ZINC000019796168    0.4200
@<TRIPOS>BOND
1     1     2     1
2     1     35    1
3     1     36    1
4     1     37    1
5     2     3     1
6     2     38    1
7     2     39    1
8     3     4     1
9     3     40    1
10    3     41    1
11    4     9     1
12    4     5     2
13    5     6     1
14    6     7     1
15    6     8     1
16    7     42    1
17    7     43    1
18    7     44    1
19    8     33    1
20    8     9     2
21    9     10    1
22    10    11    2
23    11    12    1
24    11    32    1
25    12    28    ar
26    12    13    ar
27    13    14    ar
28    13    45    1
29    14    15    1
30    14    26    ar
31    15    16    2
32    15    17    2
33    15    18    am
34    18    25    1
35    18    19    1
36    19    20    1
37    19    46    1
38    19    47    1
39    20    21    1
40    20    48    1
41    20    49    1
42    21    22    1
43    21    23    1
44    21    24    1
45    23    50    1
46    23    51    1
47    23    52    1
48    24    25    1
49    24    53    1
50    24    54    1
51    25    55    1
52    25    56    1
53    26    27    ar
54    26    57    1
55    27    28    ar
56    27    58    1
57    28    29    1
58    29    30    1
59    30    31    1
60    30    59    1
61    30    60    1
62    31    61    1
63    31    62    1
64    31    63    1
65    32    33    am
66    32    64    1
67    33    34    2
@<TRIPOS>SUBSTRUCTURE
1   ZINC000019796168 1     RESIDUE    1   A     ZIN   1
