@<TRIPOS>MOLECULE
ZINC000004097344
87    93    1     0     0
SMALL
USER_CHARGES
@<TRIPOS>ATOM
1      C1      0.0066    5.6280    1.3314 C.3      1 ZINC000004097344   -0.1500
2      C2     -0.2425    4.1229    1.4477 C.3      1 ZINC000004097344   -0.1300
3      C3      0.2881    3.4199    0.1966 C.3      1 ZINC000004097344    0.1800
4      H4     -0.1613    3.8676   -0.6898 H        1 ZINC000004097344    0.1100
5      C5     -0.0714    1.9339    0.2554 C.3      1 ZINC000004097344   -0.1600
6      N6      1.7442    3.5680    0.1337 N.am     1 ZINC000004097344   -0.4400
7      N7      2.6670    3.1144    1.0862 N.2      1 ZINC000004097344   -0.2600
8      C8      3.8543    3.4310    0.6799 C.2      1 ZINC000004097344    0.2500
9      N9      3.7504    4.0871   -0.5239 N.am     1 ZINC000004097344   -0.5000
10     C10     4.8203    4.5886   -1.2817 C.ar     1 ZINC000004097344    0.1300
11     C11     4.5748    5.2386   -2.4836 C.ar     1 ZINC000004097344   -0.1100
12     C12     5.6267    5.7323   -3.2290 C.ar     1 ZINC000004097344   -0.1100
13     C13     6.9308    5.5786   -2.7763 C.ar     1 ZINC000004097344    0.1000
14     N14     7.9967    6.0790   -3.5309 N.3      1 ZINC000004097344   -0.4900
15     C15     7.9814    5.5287   -4.8934 C.3      1 ZINC000004097344    0.0600
16     C16     9.1129    6.1597   -5.7083 C.3      1 ZINC000004097344    0.0500
17     N17    10.3979    5.8893   -5.0486 N.3      1 ZINC000004097344   -0.4900
18     C18    11.4644    6.3900   -5.8036 C.ar     1 ZINC000004097344    0.0700
19     C19    11.2191    7.0457   -7.0028 C.ar     1 ZINC000004097344   -0.1300
20     C20    12.2722    7.5400   -7.7471 C.ar     1 ZINC000004097344   -0.1200
21     C21    13.5747    7.3812   -7.2974 C.ar     1 ZINC000004097344    0.1100
22     O22    14.6112    7.8678   -8.0312 O.3      1 ZINC000004097344   -0.3000
23     C23    15.9261    7.6688   -7.5082 C.3      1 ZINC000004097344    0.0700
24     C24    16.9529    8.2795   -8.4641 C.3      1 ZINC000004097344    0.0400
25     H25    16.7189    9.3255   -8.6616 H        1 ZINC000004097344    0.1000
26     C26    18.3855    8.1376   -7.8920 C.3      1 ZINC000004097344    0.0200
27     O27    19.1863    8.1488   -9.0982 O.3      1 ZINC000004097344   -0.3500
28     C28    18.3966    7.4434  -10.0703 C.3      1 ZINC000004097344    0.2900
29     C29    18.8288    5.9765  -10.1171 C.3      1 ZINC000004097344    0.1100
30     N30    17.9752    5.2456  -11.0570 N.pl3    1 ZINC000004097344   -0.3800
31     C31    18.3795    4.4948  -12.0962 C.2      1 ZINC000004097344    0.2400
32     N32    17.3163    4.0124  -12.6865 N.2      1 ZINC000004097344   -0.5300
33     C33    16.2199    4.4313  -12.0558 C.2      1 ZINC000004097344    0.1900
34     N34    16.5720    5.1852  -11.0477 N.2      1 ZINC000004097344   -0.2700
35     C35    18.5857    8.0704  -11.4276 C.ar     1 ZINC000004097344   -0.0900
36     C36    19.1859    7.3508  -12.4434 C.ar     1 ZINC000004097344   -0.0800
37     C37    19.3601    7.9254  -13.6887 C.ar     1 ZINC000004097344   -0.1000
38     C38    18.9334    9.2210  -13.9187 C.ar     1 ZINC000004097344   -0.0100
39     Cl39   19.1518    9.9423  -15.4826 Cl       1 ZINC000004097344   -0.0500
40     C40    18.3321    9.9418  -12.9023 C.ar     1 ZINC000004097344   -0.1100
41     C41    18.1533    9.3645  -11.6582 C.ar     1 ZINC000004097344    0.0100
42     Cl42   17.3984   10.2679  -10.3823 Cl       1 ZINC000004097344   -0.0400
43     O43    17.0130    7.5296   -9.6942 O.3      1 ZINC000004097344   -0.3200
44     C44    13.8206    6.7268   -6.0994 C.ar     1 ZINC000004097344   -0.1800
45     C45    12.7683    6.2365   -5.3512 C.ar     1 ZINC000004097344   -0.1000
46     C46    10.4132    6.4396   -3.6860 C.3      1 ZINC000004097344    0.0600
47     C47     9.2817    5.8086   -2.8711 C.3      1 ZINC000004097344    0.0500
48     C48     7.1760    4.9282   -1.5738 C.ar     1 ZINC000004097344   -0.1400
49     C49     6.1232    4.4394   -0.8263 C.ar     1 ZINC000004097344   -0.1100
50     C50     2.4456    4.1612   -0.8547 C.2      1 ZINC000004097344    0.6500
51     O51     1.9841    4.6760   -1.8577 O.2      1 ZINC000004097344   -0.5400
52     H52     1.0766    5.8129    1.2369 H        1 ZINC000004097344    0.0500
53     H53    -0.5080    6.0145    0.4516 H        1 ZINC000004097344    0.0600
54     H54    -0.3714    6.1288    2.2227 H        1 ZINC000004097344    0.0600
55     H55     0.2720    3.7363    2.3274 H        1 ZINC000004097344    0.0800
56     H56    -1.3126    3.9379    1.5421 H        1 ZINC000004097344    0.0800
57     H57     0.3066    1.4331   -0.6359 H        1 ZINC000004097344    0.0600
58     H58     0.3780    1.4862    1.1418 H        1 ZINC000004097344    0.0700
59     H59    -1.1548    1.8237    0.3022 H        1 ZINC000004097344    0.0800
60     H60     4.7754    3.2156    1.2011 H        1 ZINC000004097344    0.2300
61     H61     3.5608    5.3577   -2.8357 H        1 ZINC000004097344    0.1600
62     H62     5.4357    6.2376   -4.1641 H        1 ZINC000004097344    0.1300
63     H63     8.1224    4.4487   -4.8510 H        1 ZINC000004097344    0.0600
64     H64     7.0247    5.7526   -5.3654 H        1 ZINC000004097344    0.0900
65     H65     9.1216    5.7317   -6.7107 H        1 ZINC000004097344    0.0900
66     H66     8.9572    7.2365   -5.7737 H        1 ZINC000004097344    0.0600
67     H67    10.2051    7.1689   -7.3535 H        1 ZINC000004097344    0.1300
68     H68    12.0816    8.0500   -8.6798 H        1 ZINC000004097344    0.1300
69     H69    16.0060    8.1499   -6.5334 H        1 ZINC000004097344    0.0800
70     H70    16.1175    6.6009   -7.4032 H        1 ZINC000004097344    0.0700
71     H71    18.6349    8.9825   -7.2501 H        1 ZINC000004097344    0.1200
72     H72    18.5002    7.1953   -7.3562 H        1 ZINC000004097344    0.0900
73     H73    19.8665    5.9137  -10.4445 H        1 ZINC000004097344    0.1200
74     H74    18.7340    5.5379   -9.1237 H        1 ZINC000004097344    0.1000
75     H75    19.4034    4.3207  -12.3924 H        1 ZINC000004097344    0.2200
76     H76    15.2049    4.1845  -12.3304 H        1 ZINC000004097344    0.2200
77     H77    19.5192    6.3392  -12.2643 H        1 ZINC000004097344    0.1400
78     H78    19.8298    7.3628  -14.4819 H        1 ZINC000004097344    0.1500
79     H79    17.9988   10.9533  -13.0814 H        1 ZINC000004097344    0.1500
80     H80    14.8350    6.6035   -5.7500 H        1 ZINC000004097344    0.1300
81     H81    12.9599    5.7269   -4.4185 H        1 ZINC000004097344    0.1300
82     H82    11.3698    6.2157   -3.2141 H        1 ZINC000004097344    0.0900
83     H83    10.2722    7.5196   -3.7284 H        1 ZINC000004097344    0.0500
84     H84     9.2730    6.2366   -1.8687 H        1 ZINC000004097344    0.0900
85     H85     9.4374    4.7318   -2.8058 H        1 ZINC000004097344    0.0600
86     H86     8.1899    4.8081   -1.2216 H        1 ZINC000004097344    0.1400
87     H87     6.3138    3.9337    0.1087 H        1 ZINC000004097344    0.1300
@<TRIPOS>BOND
1     1     2     1
2     1     52    1
3     1     53    1
4     1     54    1
5     2     3     1
6     2     55    1
7     2     56    1
8     3     4     1
9     3     5     1
10    3     6     1
11    5     57    1
12    5     58    1
13    5     59    1
14    6     50    am
15    6     7     1
16    7     8     2
17    8     9     1
18    8     60    1
19    9     10    1
20    9     50    am
21    10    49    ar
22    10    11    ar
23    11    12    ar
24    11    61    1
25    12    13    ar
26    12    62    1
27    13    14    1
28    13    48    ar
29    14    47    1
30    14    15    1
31    15    16    1
32    15    63    1
33    15    64    1
34    16    17    1
35    16    65    1
36    16    66    1
37    17    18    1
38    17    46    1
39    18    45    ar
40    18    19    ar
41    19    20    ar
42    19    67    1
43    20    21    ar
44    20    68    1
45    21    22    1
46    21    44    ar
47    22    23    1
48    23    24    1
49    23    69    1
50    23    70    1
51    24    25    1
52    24    43    1
53    24    26    1
54    26    27    1
55    26    71    1
56    26    72    1
57    27    28    1
58    28    29    1
59    28    35    1
60    28    43    1
61    29    30    1
62    29    73    1
63    29    74    1
64    30    34    1
65    30    31    1
66    31    32    2
67    31    75    1
68    32    33    1
69    33    34    2
70    33    76    1
71    35    41    ar
72    35    36    ar
73    36    37    ar
74    36    77    1
75    37    38    ar
76    37    78    1
77    38    39    1
78    38    40    ar
79    40    41    ar
80    40    79    1
81    41    42    1
82    44    45    ar
83    44    80    1
84    45    81    1
85    46    47    1
86    46    82    1
87    46    83    1
88    47    84    1
89    47    85    1
90    48    49    ar
91    48    86    1
92    49    87    1
93    50    51    2
@<TRIPOS>SUBSTRUCTURE
1   ZINC000004097344 1     RESIDUE    1   A     ZIN   1
