@<TRIPOS>MOLECULE
ZINC000000896484
23    24    1     0     0
SMALL
USER_CHARGES
@<TRIPOS>ATOM
1      Cl1     0.8682    1.6129   -2.5651 Cl       1 ZINC000000896484   -0.0500
2      C2      0.3637    2.4508   -1.1308 C.ar     1 ZINC000000896484   -0.0200
3      C3     -0.8443    3.1225   -1.1106 C.ar     1 ZINC000000896484   -0.1000
4      C4     -1.2470    3.7901    0.0314 C.ar     1 ZINC000000896484   -0.0900
5      C5     -0.4435    3.7886    1.1568 C.ar     1 ZINC000000896484   -0.1000
6      C6      0.7655    3.1187    1.1439 C.ar     1 ZINC000000896484   -0.0200
7      Cl7     1.7734    3.1173    2.5574 Cl       1 ZINC000000896484   -0.0500
8      C8      1.1709    2.4423   -0.0000 C.ar     1 ZINC000000896484    0.1800
9      N9      2.3948    1.7627   -0.0167 N.pl3    1 ZINC000000896484   -0.6800
10     C10     2.4580    0.4488    0.3880 C.2      1 ZINC000000896484    0.6100
11     N11     1.4096   -0.2398    0.7027 N.2      1 ZINC000000896484   -0.6200
12     C12     1.7987   -1.6025    1.0913 C.3      1 ZINC000000896484    0.0400
13     C13     3.3336   -1.6080    0.9471 C.3      1 ZINC000000896484    0.0900
14     N14     3.6347   -0.2422    0.4863 N.pl3    1 ZINC000000896484   -0.7700
15     H15    -1.4742    3.1261   -1.9879 H        1 ZINC000000896484    0.1400
16     H16    -2.1911    4.3144    0.0443 H        1 ZINC000000896484    0.1500
17     H17    -0.7608    4.3117    2.0467 H        1 ZINC000000896484    0.1400
18     H18     3.1983    2.2179   -0.3136 H        1 ZINC000000896484    0.4200
19     H19     1.5112   -1.8023    2.1235 H        1 ZINC000000896484    0.0800
20     H20     1.3493   -2.3343    0.4199 H        1 ZINC000000896484    0.0800
21     H21     3.8093   -1.8070    1.9074 H        1 ZINC000000896484    0.0700
22     H22     3.6473   -2.3394    0.2024 H        1 ZINC000000896484    0.0700
23     H23     4.5174    0.1092    0.2907 H        1 ZINC000000896484    0.4100
@<TRIPOS>BOND
1     1     2     1
2     2     8     ar
3     2     3     ar
4     3     4     ar
5     3     15    1
6     4     5     ar
7     4     16    1
8     5     6     ar
9     5     17    1
10    6     7     1
11    6     8     ar
12    8     9     1
13    9     10    1
14    9     18    1
15    10    14    1
16    10    11    2
17    11    12    1
18    12    13    1
19    12    19    1
20    12    20    1
21    13    14    1
22    13    21    1
23    13    22    1
24    14    23    1
@<TRIPOS>SUBSTRUCTURE
1   ZINC000000896484 1     RESIDUE    1   A     ZIN   1
