@<TRIPOS>MOLECULE
ZINC000001530641
39    39    1     0     0
SMALL
USER_CHARGES
@<TRIPOS>ATOM
1      C1     -0.0184    1.5028    0.0103 C.3      1 ZINC000001530641   -0.1200
2      C2      0.0021   -0.0041    0.0020 C.ar     1 ZINC000001530641   -0.0500
3      C3      0.0057   -0.6881   -1.1993 C.ar     1 ZINC000001530641   -0.1600
4      C4      0.0244   -2.0708   -1.2103 C.ar     1 ZINC000001530641   -0.0800
5      C5      0.0396   -2.7719   -0.0204 C.ar     1 ZINC000001530641   -0.1300
6      C6      0.0605   -4.2787   -0.0331 C.3      1 ZINC000001530641   -0.1000
7      C7      0.0360   -2.0877    1.1867 C.ar     1 ZINC000001530641    0.1400
8      O8      0.0513   -2.7752    2.3589 O.3      1 ZINC000001530641   -0.3100
9      C9      0.0465   -2.0053    3.5627 C.3      1 ZINC000001530641    0.0600
10     C10     0.0654   -2.9456    4.7696 C.3      1 ZINC000001530641   -0.1200
11     C11     0.0603   -2.1213    6.0585 C.3      1 ZINC000001530641   -0.0800
12     C12     0.0793   -3.0615    7.2653 C.3      1 ZINC000001530641   -0.1400
13     C13    -1.1578   -3.9612    7.2304 C.3      1 ZINC000001530641   -0.1200
14     C14     1.3404   -3.9265    7.2181 C.3      1 ZINC000001530641   -0.1200
15     C15     0.0742   -2.2496    8.5349 C.2      1 ZINC000001530641    0.5000
16     O16    -0.4426   -2.6987    9.5437 O.co2    1 ZINC000001530641   -0.7000
17     O17     0.5869   -1.1436    8.5532 O.co2    1 ZINC000001530641   -0.7000
18     C18     0.0229   -0.7007    1.1950 C.ar     1 ZINC000001530641   -0.2100
19     H19     1.0042    1.8801    0.0026 H        1 ZINC000001530641    0.0700
20     H20    -0.5455    1.8639   -0.8728 H        1 ZINC000001530641    0.0700
21     H21    -0.5286    1.8543    0.9071 H        1 ZINC000001530641    0.0700
22     H22    -0.0065   -0.1417   -2.1308 H        1 ZINC000001530641    0.1200
23     H23     0.0269   -2.6029   -2.1501 H        1 ZINC000001530641    0.1300
24     H24     1.0931   -4.6277   -0.0408 H        1 ZINC000001530641    0.0700
25     H25    -0.4441   -4.6566    0.8561 H        1 ZINC000001530641    0.0700
26     H26    -0.4524   -4.6417   -0.9237 H        1 ZINC000001530641    0.0600
27     H27     0.9277   -1.3644    3.5876 H        1 ZINC000001530641    0.0600
28     H28    -0.8520   -1.3891    3.5963 H        1 ZINC000001530641    0.0600
29     H29    -0.8158   -3.5866    4.7447 H        1 ZINC000001530641    0.0700
30     H30     0.9639   -3.5618    4.7360 H        1 ZINC000001530641    0.0700
31     H31     0.9416   -1.4803    6.0834 H        1 ZINC000001530641    0.0700
32     H32    -0.8382   -1.5051    6.0921 H        1 ZINC000001530641    0.0500
33     H33    -1.1541   -4.5485    6.3121 H        1 ZINC000001530641    0.0400
34     H34    -1.1442   -4.6311    8.0901 H        1 ZINC000001530641    0.0600
35     H35    -2.0563   -3.3450    7.2640 H        1 ZINC000001530641    0.0400
36     H36     2.2217   -3.2855    7.2430 H        1 ZINC000001530641    0.0500
37     H37     1.3540   -4.5963    8.0779 H        1 ZINC000001530641    0.0500
38     H38     1.3441   -4.5137    6.2999 H        1 ZINC000001530641    0.0400
39     H39     0.0200   -0.1658    2.1333 H        1 ZINC000001530641    0.1300
@<TRIPOS>BOND
1     1     2     1
2     1     19    1
3     1     20    1
4     1     21    1
5     2     18    ar
6     2     3     ar
7     3     4     ar
8     3     22    1
9     4     5     ar
10    4     23    1
11    5     6     1
12    5     7     ar
13    6     24    1
14    6     25    1
15    6     26    1
16    7     8     1
17    7     18    ar
18    8     9     1
19    9     10    1
20    9     27    1
21    9     28    1
22    10    11    1
23    10    29    1
24    10    30    1
25    11    12    1
26    11    31    1
27    11    32    1
28    12    13    1
29    12    14    1
30    12    15    1
31    13    33    1
32    13    34    1
33    13    35    1
34    14    36    1
35    14    37    1
36    14    38    1
37    15    16    ar
38    15    17    ar
39    18    39    1
@<TRIPOS>SUBSTRUCTURE
1   ZINC000001530641 1     RESIDUE    1   A     ZIN   1
