@<TRIPOS>MOLECULE
ZINC000000105196
23   23    0    0    0
SMALL
USER_CHARGES
NO_NAME
@<TRIPOS>ATOM
1 N1       -0.0116     1.0048     0.0076 N.4    1 <0>      -0.6100
2 H2        0.0021    -0.0041     0.0020 H      1 <0>       0.4100
3 H3        0.9350     1.3541     0.0004 H      1 <0>       0.4300
4 H4       -0.4996     1.3391    -0.8099 H      1 <0>       0.4300
5 C5       -0.6992     1.4786     1.2162 C.3    1 <0>      -0.0400
6 H6       -1.7218     1.1013     1.2239 H      1 <0>       0.1300
7 C7        0.0408     0.9717     2.4557 C.3    1 <0>      -0.0800
8 C8       -0.0446    -0.5318     2.5119 C.ar   1 <0>      -0.1100
9 C9       -1.0974    -1.1402     3.1694 C.ar   1 <0>      -0.1100
10 C10      -1.1757    -2.5194     3.2210 C.ar   1 <0>      -0.1100
11 C11      -0.2014    -3.2901     2.6147 C.ar   1 <0>      -0.1200
12 C12       0.8509    -2.6817     1.9564 C.ar   1 <0>      -0.1100
13 C13       0.9269    -1.3026     1.9012 C.ar   1 <0>      -0.1400
14 C14      -0.7196     2.9854     1.2245 C.2    1 <0>       0.4900
15 O15      -1.3988     3.5814     2.0431 O.co2  1 <0>      -0.6300
16 O16      -0.0570     3.6085     0.4126 O.co2  1 <0>      -0.6700
17 H17       1.0866     1.2746     2.4037 H      1 <0>       0.0900
18 H18      -0.4161     1.3953     3.3501 H      1 <0>       0.1200
19 H19      -1.8586    -0.5380     3.6431 H      1 <0>       0.1300
20 H20      -1.9979    -2.9947     3.7353 H      1 <0>       0.1300
21 H21      -0.2622    -4.3676     2.6556 H      1 <0>       0.1300
22 H22       1.6123    -3.2839     1.4830 H      1 <0>       0.1300
23 H23       1.7491    -0.8272     1.3869 H      1 <0>       0.1200
@<TRIPOS>BOND
1    1    2 1
2    1    3 1
3    1    4 1
4    1    5 1
5    5    6 1
6    5    7 1
7    5   14 1
8    7    8 1
9    7   17 1
10    7   18 1
11    8   13 ar
12    8    9 ar
13    9   10 ar
14    9   19 1
15   10   11 ar
16   10   20 1
17   11   12 ar
18   11   21 1
19   12   13 ar
20   12   22 1
21   13   23 1
22   14   15 ar
23   14   16 ar
