@<TRIPOS>MOLECULE
ZINC000000001115
37    37    1     0     0
SMALL
USER_CHARGES
@<TRIPOS>ATOM
1      O1      0.0021   -0.0041    0.0020 O.co2    1 ZINC000000001115   -0.7000
2      C2     -0.0145    1.2150    0.0087 C.2      1 ZINC000000001115    0.4900
3      O3      1.0330    1.8389    0.0021 O.co2    1 ZINC000000001115   -0.7100
4      C4     -1.3296    1.9507    0.0190 C.3      1 ZINC000000001115   -0.1800
5      C5     -2.4790    0.9408    0.0189 C.3      1 ZINC000000001115   -0.0900
6      C6     -3.8142    1.6877    0.0293 C.3      1 ZINC000000001115   -0.0800
7      C7     -4.9463    0.6929    0.0293 C.ar     1 ZINC000000001115   -0.1100
8      C8     -5.4664    0.2398   -1.1692 C.ar     1 ZINC000000001115   -0.0700
9      C9     -6.5038   -0.6718   -1.1729 C.ar     1 ZINC000000001115   -0.1900
10     C10    -7.0248   -1.1336    0.0292 C.ar     1 ZINC000000001115    0.1900
11     N11    -8.0737   -2.0559    0.0292 N.pl3    1 ZINC000000001115   -0.6300
12     C12    -8.6219   -2.5418    1.2979 C.3      1 ZINC000000001115    0.1200
13     C13    -9.7653   -1.6276    1.7428 C.3      1 ZINC000000001115   -0.0500
14     Cl14  -10.4400   -2.2256    3.3042 Cl       1 ZINC000000001115   -0.1800
15     C15    -8.6256   -2.5374   -1.2396 C.3      1 ZINC000000001115    0.1200
16     C16    -7.8653   -3.7883   -1.6845 C.3      1 ZINC000000001115   -0.0500
17     Cl17   -8.5446   -4.3809   -3.2460 Cl       1 ZINC000000001115   -0.1800
18     C18    -6.5000   -0.6763    1.2313 C.ar     1 ZINC000000001115   -0.1900
19     C19    -5.4588    0.2310    1.2277 C.ar     1 ZINC000000001115   -0.0700
20     H20    -1.3917    2.5717    0.9126 H        1 ZINC000000001115    0.0600
21     H21    -1.4001    2.5813   -0.8673 H        1 ZINC000000001115    0.0600
22     H22    -2.4169    0.3198   -0.8748 H        1 ZINC000000001115    0.0600
23     H23    -2.4085    0.3101    0.9052 H        1 ZINC000000001115    0.0600
24     H24    -3.8762    2.3086    0.9230 H        1 ZINC000000001115    0.0600
25     H25    -3.8847    2.3183   -0.8569 H        1 ZINC000000001115    0.0600
26     H26    -5.0611    0.5995   -2.1035 H        1 ZINC000000001115    0.1200
27     H27    -6.9098   -1.0250   -2.1093 H        1 ZINC000000001115    0.1200
28     H28    -8.9980   -3.5563    1.1663 H        1 ZINC000000001115    0.0800
29     H29    -7.8391   -2.5399    2.0564 H        1 ZINC000000001115    0.0900
30     H30    -9.3892   -0.6131    1.8743 H        1 ZINC000000001115    0.1000
31     H31   -10.5481   -1.6295    0.9843 H        1 ZINC000000001115    0.0900
32     H32    -9.6800   -2.7807   -1.1081 H        1 ZINC000000001115    0.0800
33     H33    -8.5237   -1.7612   -1.9981 H        1 ZINC000000001115    0.0900
34     H34    -6.8109   -3.5450   -1.8160 H        1 ZINC000000001115    0.1000
35     H35    -7.9672   -4.5645   -0.9261 H        1 ZINC000000001115    0.0900
36     H36    -6.9030   -1.0330    2.1677 H        1 ZINC000000001115    0.1200
37     H37    -5.0503    0.5870    2.1620 H        1 ZINC000000001115    0.1200
@<TRIPOS>BOND
1     1     2     ar
2     2     3     ar
3     2     4     1
4     4     5     1
5     4     20    1
6     4     21    1
7     5     6     1
8     5     22    1
9     5     23    1
10    6     7     1
11    6     24    1
12    6     25    1
13    7     19    ar
14    7     8     ar
15    8     9     ar
16    8     26    1
17    9     10    ar
18    9     27    1
19    10    11    1
20    10    18    ar
21    11    12    1
22    11    15    1
23    12    13    1
24    12    28    1
25    12    29    1
26    13    14    1
27    13    30    1
28    13    31    1
29    15    16    1
30    15    32    1
31    15    33    1
32    16    17    1
33    16    34    1
34    16    35    1
35    18    19    ar
36    18    36    1
37    19    37    1
@<TRIPOS>SUBSTRUCTURE
1   ZINC000000001115 1     RESIDUE    1   A     ZIN   1
