@<TRIPOS>MOLECULE
ZINC000000001145
32    33    1     0     0
SMALL
USER_CHARGES
@<TRIPOS>ATOM
1      C1     -0.0184    1.5028    0.0103 C.3      1 ZINC000000001145   -0.1300
2      C2      0.0021   -0.0041    0.0020 C.2      1 ZINC000000001145    0.0200
3      C3      0.0059   -0.6872   -1.1786 C.2      1 ZINC000000001145   -0.2500
4      C4      0.0256   -2.0922   -1.1603 C.2      1 ZINC000000001145    0.5000
5      O5      0.0296   -2.7160   -2.2095 O.2      1 ZINC000000001145   -0.5600
6      N6      0.0404   -2.7507    0.0142 N.am     1 ZINC000000001145   -0.3500
7      O7      0.0606   -4.1666    0.0227 O.3      1 ZINC000000001145   -0.3100
8      C8      0.0366   -2.0726    1.1903 C.2      1 ZINC000000001145    0.2000
9      C9      0.0540   -2.8346    2.4904 C.3      1 ZINC000000001145   -0.0500
10     C10    -1.1822   -3.7325    2.5718 C.3      1 ZINC000000001145   -0.1200
11     C11    -1.1645   -4.5061    3.8916 C.3      1 ZINC000000001145   -0.1200
12     C12     0.0975   -5.3684    3.9605 C.3      1 ZINC000000001145   -0.1200
13     C13     1.3337   -4.4705    3.8791 C.3      1 ZINC000000001145   -0.1200
14     C14     1.3160   -3.6968    2.5593 C.3      1 ZINC000000001145   -0.1200
15     C15     0.0232   -0.7192    1.2077 C.2      1 ZINC000000001145   -0.2300
16     H16     1.0042    1.8801    0.0026 H        1 ZINC000000001145    0.0900
17     H17    -0.5455    1.8639   -0.8728 H        1 ZINC000000001145    0.0800
18     H18    -0.5286    1.8543    0.9071 H        1 ZINC000000001145    0.0800
19     H19    -0.0064   -0.1538   -2.1176 H        1 ZINC000000001145    0.1600
20     H20     0.0623   -4.5652   -0.8583 H        1 ZINC000000001145    0.4100
21     H21     0.0481   -2.1319    3.3236 H        1 ZINC000000001145    0.1000
22     H22    -2.0813   -3.1182    2.5227 H        1 ZINC000000001145    0.0600
23     H23    -1.1763   -4.4352    1.7386 H        1 ZINC000000001145    0.0800
24     H24    -1.1704   -3.8034    4.7248 H        1 ZINC000000001145    0.0600
25     H25    -2.0452   -5.1458    3.9496 H        1 ZINC000000001145    0.0700
26     H26     0.1101   -5.9195    4.9008 H        1 ZINC000000001145    0.0600
27     H27     0.1034   -6.0711    3.1273 H        1 ZINC000000001145    0.0600
28     H28     1.3278   -3.7678    4.7123 H        1 ZINC000000001145    0.0600
29     H29     2.2328   -5.0848    3.9282 H        1 ZINC000000001145    0.0700
30     H30     1.3219   -4.3996    1.7261 H        1 ZINC000000001145    0.0800
31     H31     2.1967   -3.0572    2.5013 H        1 ZINC000000001145    0.0600
32     H32     0.0203   -0.1908    2.1496 H        1 ZINC000000001145    0.1600
@<TRIPOS>BOND
1     1     2     1
2     1     16    1
3     1     17    1
4     1     18    1
5     2     15    1
6     2     3     2
7     3     4     1
8     3     19    1
9     4     5     2
10    4     6     am
11    6     7     1
12    6     8     1
13    7     20    1
14    8     9     1
15    8     15    2
16    9     14    1
17    9     10    1
18    9     21    1
19    10    11    1
20    10    22    1
21    10    23    1
22    11    12    1
23    11    24    1
24    11    25    1
25    12    13    1
26    12    26    1
27    12    27    1
28    13    14    1
29    13    28    1
30    13    29    1
31    14    30    1
32    14    31    1
33    15    32    1
@<TRIPOS>SUBSTRUCTURE
1   ZINC000000001145 1     RESIDUE    1   A     ZIN   1
