@<TRIPOS>MOLECULE
ZINC000008220878
63    63    1     0     0
SMALL
USER_CHARGES
@<TRIPOS>ATOM
1      C1      3.8392   -5.5817   -2.5878 C.3      1 ZINC000008220878   -0.1600
2      C2      2.6757   -5.2345   -1.6568 C.3      1 ZINC000008220878   -0.1300
3      C3      1.3921   -5.8806   -2.1819 C.3      1 ZINC000008220878   -0.1200
4      C4      0.2287   -5.5334   -1.2509 C.3      1 ZINC000008220878   -0.1200
5      C5     -1.0550   -6.1795   -1.7759 C.3      1 ZINC000008220878   -0.1200
6      C6     -2.2184   -5.8323   -0.8449 C.3      1 ZINC000008220878   -0.1500
7      C7     -3.5021   -6.4784   -1.3700 C.3      1 ZINC000008220878   -0.0100
8      N8     -4.6192   -6.1450   -0.4761 N.4      1 ZINC000008220878   -0.3900
9      H9     -4.3880   -6.4182    0.4674 H        1 ZINC000008220878    0.4200
10     C10    -4.8664   -4.6976   -0.5202 C.3      1 ZINC000008220878   -0.0200
11     C11    -5.9228   -4.3287    0.5233 C.3      1 ZINC000008220878   -0.1900
12     C12    -5.8254   -6.8613   -0.9116 C.3      1 ZINC000008220878   -0.0200
13     C13    -5.6186   -8.3663   -0.7294 C.3      1 ZINC000008220878   -0.1500
14     C14    -6.9193   -9.1030   -1.0554 C.3      1 ZINC000008220878   -0.1500
15     C15    -6.7125  -10.6080   -0.8731 C.3      1 ZINC000008220878    0.1500
16     H16    -6.3420  -10.8046    0.1329 H        1 ZINC000008220878    0.1100
17     O17    -5.7618  -11.0776   -1.8311 O.3      1 ZINC000008220878   -0.5500
18     C18    -8.0236  -11.3232   -1.0744 C.ar     1 ZINC000008220878   -0.1400
19     C19    -8.4303  -11.6726   -2.3491 C.ar     1 ZINC000008220878   -0.0900
20     C20    -9.6313  -12.3281   -2.5370 C.ar     1 ZINC000008220878   -0.1300
21     C21   -10.4309  -12.6365   -1.4438 C.ar     1 ZINC000008220878    0.1500
22     N22   -11.6459  -13.2998   -1.6303 N.am     1 ZINC000008220878   -1.0600
23     S23   -12.0452  -14.5837   -0.6637 S.o2     1 ZINC000008220878    2.6100
24     C24   -10.7500  -15.8124   -0.9853 C.3      1 ZINC000008220878   -0.6700
25     O25   -11.9329  -14.0753    0.6585 O.2      1 ZINC000008220878   -0.9500
26     O26   -13.2941  -15.0308   -1.1730 O.2      1 ZINC000008220878   -0.9400
27     C27   -10.0194  -12.2841   -0.1648 C.ar     1 ZINC000008220878   -0.1500
28     C28    -8.8146  -11.6337    0.0166 C.ar     1 ZINC000008220878   -0.0800
29     H29     4.7537   -5.1214   -2.2138 H        1 ZINC000008220878    0.0600
30     H30     3.9654   -6.6638   -2.6236 H        1 ZINC000008220878    0.0500
31     H31     3.6273   -5.2073   -3.5893 H        1 ZINC000008220878    0.0500
32     H32     2.8876   -5.6089   -0.6553 H        1 ZINC000008220878    0.0600
33     H33     2.5495   -4.1524   -1.6210 H        1 ZINC000008220878    0.0600
34     H34     1.1802   -5.5062   -3.1834 H        1 ZINC000008220878    0.0600
35     H35     1.5183   -6.9627   -2.2177 H        1 ZINC000008220878    0.0600
36     H36     0.4405   -5.9078   -0.2494 H        1 ZINC000008220878    0.0700
37     H37     0.1024   -4.4513   -1.2151 H        1 ZINC000008220878    0.0700
38     H38    -1.2669   -5.8051   -2.7774 H        1 ZINC000008220878    0.0700
39     H39    -0.9288   -7.2616   -1.8117 H        1 ZINC000008220878    0.0700
40     H40    -2.0066   -6.2067    0.1566 H        1 ZINC000008220878    0.0900
41     H41    -2.3447   -4.7502   -0.8091 H        1 ZINC000008220878    0.0900
42     H42    -3.7140   -6.1040   -2.3715 H        1 ZINC000008220878    0.1300
43     H43    -3.3759   -7.5605   -1.4058 H        1 ZINC000008220878    0.1300
44     H44    -3.9407   -4.1642   -0.3044 H        1 ZINC000008220878    0.1300
45     H45    -5.2230   -4.4200   -1.5121 H        1 ZINC000008220878    0.1300
46     H46    -6.8292   -4.9066    0.3428 H        1 ZINC000008220878    0.0800
47     H47    -5.5422   -4.5516    1.5201 H        1 ZINC000008220878    0.0800
48     H48    -6.1495   -3.2651    0.4504 H        1 ZINC000008220878    0.1100
49     H49    -6.6768   -6.5365   -0.3135 H        1 ZINC000008220878    0.1300
50     H50    -6.0165   -6.6455   -1.9628 H        1 ZINC000008220878    0.1300
51     H51    -4.8296   -8.7084   -1.3992 H        1 ZINC000008220878    0.0900
52     H52    -5.3336   -8.5716    0.3024 H        1 ZINC000008220878    0.0900
53     H53    -7.7083   -8.7610   -0.3856 H        1 ZINC000008220878    0.0900
54     H54    -7.2044   -8.8978   -2.0872 H        1 ZINC000008220878    0.0800
55     H55    -6.0264  -10.9352   -2.7502 H        1 ZINC000008220878    0.3800
56     H56    -7.8083  -11.4322   -3.1986 H        1 ZINC000008220878    0.1300
57     H57    -9.9485  -12.6003   -3.5328 H        1 ZINC000008220878    0.1300
58     H58   -12.2558  -13.0084   -2.3260 H        1 ZINC000008220878    0.4300
59     H59    -9.7901  -15.4271   -0.6413 H        1 ZINC000008220878    0.1300
60     H60   -10.9833  -16.7343   -0.4526 H        1 ZINC000008220878    0.1400
61     H61   -10.6981  -16.0142   -2.0552 H        1 ZINC000008220878    0.1300
62     H62   -10.6389  -12.5220    0.6873 H        1 ZINC000008220878    0.1600
63     H63    -8.4940  -11.3595    1.0108 H        1 ZINC000008220878    0.1300
@<TRIPOS>BOND
1     1     2     1
2     1     29    1
3     1     30    1
4     1     31    1
5     2     3     1
6     2     32    1
7     2     33    1
8     3     4     1
9     3     34    1
10    3     35    1
11    4     5     1
12    4     36    1
13    4     37    1
14    5     6     1
15    5     38    1
16    5     39    1
17    6     7     1
18    6     40    1
19    6     41    1
20    7     8     1
21    7     42    1
22    7     43    1
23    8     9     1
24    8     10    1
25    8     12    1
26    10    11    1
27    10    44    1
28    10    45    1
29    11    46    1
30    11    47    1
31    11    48    1
32    12    13    1
33    12    49    1
34    12    50    1
35    13    14    1
36    13    51    1
37    13    52    1
38    14    15    1
39    14    53    1
40    14    54    1
41    15    16    1
42    15    17    1
43    15    18    1
44    17    55    1
45    18    28    ar
46    18    19    ar
47    19    20    ar
48    19    56    1
49    20    21    ar
50    20    57    1
51    21    22    1
52    21    27    ar
53    22    23    am
54    22    58    1
55    23    24    1
56    23    25    2
57    23    26    2
58    24    59    1
59    24    60    1
60    24    61    1
61    27    28    ar
62    27    62    1
63    28    63    1
@<TRIPOS>SUBSTRUCTURE
1   ZINC000008220878 1     RESIDUE    1   A     ZIN   1
