@<TRIPOS>MOLECULE
ZINC000007997966
32    34    1     0     0
SMALL
USER_CHARGES
@<TRIPOS>ATOM
1      O1      2.0485    1.2027   -0.0247 O.2      1 ZINC000007997966   -0.5400
2      C2      0.9960    1.8039   -0.0036 C.2      1 ZINC000007997966    0.5000
3      C3      0.8002    3.3070    0.0073 C.3      1 ZINC000007997966   -0.0400
4      N4     -0.6642    3.4652    0.0322 N.am     1 ZINC000007997966   -0.4200
5      N5     -1.3192    4.5764    0.0481 N.2      1 ZINC000007997966   -0.1200
6      C6     -0.6680    5.7298    0.1453 C.2      1 ZINC000007997966   -0.0400
7      C7     -1.3750    6.9177    0.2679 C.2      1 ZINC000007997966    0.1200
8      C8     -0.7999    8.2673    0.3788 C.2      1 ZINC000007997966   -0.2100
9      C9     -1.8493    9.1222    0.4776 C.2      1 ZINC000007997966   -0.1200
10     C10    -3.0359    8.3492    0.4314 C.2      1 ZINC000007997966   -0.0800
11     C11    -4.3533    8.8671    0.5050 C.ar     1 ZINC000007997966    0.0800
12     C12    -4.5643   10.2536    0.6292 C.ar     1 ZINC000007997966   -0.1300
13     C13    -5.8428   10.7434    0.6996 C.ar     1 ZINC000007997966   -0.0300
14     C14    -6.9263    9.8784    0.6492 C.ar     1 ZINC000007997966   -0.0400
15     N15    -8.3021   10.4193    0.7261 N.pl3    1 ZINC000007997966   -0.0100
16     O16    -8.4940   11.7170    0.8419 O.2      1 ZINC000007997966   -0.1900
17     O17    -9.3343    9.6026    0.6788 O.2      1 ZINC000007997966   -0.1800
18     C18    -6.7301    8.5105    0.5269 C.ar     1 ZINC000007997966   -0.0300
19     C19    -5.4606    7.9992    0.4486 C.ar     1 ZINC000007997966   -0.1300
20     O20    -2.7192    7.0497    0.3016 O.3      1 ZINC000007997966   -0.1200
21     C21    -1.1852    2.2250    0.0344 C.2      1 ZINC000007997966    0.6600
22     O22    -2.3772    1.9935    0.0527 O.2      1 ZINC000007997966   -0.5500
23     N23    -0.2435    1.2750    0.0089 N.pl3    1 ZINC000007997966   -0.6900
24     H24     1.2485    3.7457    0.8988 H        1 ZINC000007997966    0.1000
25     H25     1.2191    3.7549   -0.8938 H        1 ZINC000007997966    0.1000
26     H26     0.4118    5.7433    0.1291 H        1 ZINC000007997966    0.1500
27     H27     0.2487    8.5261    0.3814 H        1 ZINC000007997966    0.1600
28     H28    -1.7906   10.1963    0.5742 H        1 ZINC000007997966    0.1600
29     H29    -3.7223   10.9287    0.6693 H        1 ZINC000007997966    0.1500
30     H30    -6.0071   11.8065    0.7949 H        1 ZINC000007997966    0.1600
31     H31    -7.5809    7.8464    0.4887 H        1 ZINC000007997966    0.1600
32     H32    -5.3102    6.9340    0.3530 H        1 ZINC000007997966    0.1500
@<TRIPOS>BOND
1     1     2     2
2     2     23    1
3     2     3     1
4     3     4     1
5     3     24    1
6     3     25    1
7     4     5     1
8     4     21    am
9     5     6     2
10    6     7     1
11    6     26    1
12    7     20    1
13    7     8     2
14    8     9     1
15    8     27    1
16    9     10    2
17    9     28    1
18    10    11    1
19    10    20    1
20    11    19    ar
21    11    12    ar
22    12    13    ar
23    12    29    1
24    13    14    ar
25    13    30    1
26    14    15    1
27    14    18    ar
28    15    16    2
29    15    17    2
30    18    19    ar
31    18    31    1
32    19    32    1
33    21    22    2
34    21    23    1
@<TRIPOS>SUBSTRUCTURE
1   ZINC000007997966 1     RESIDUE    1   A     ZIN   1
