@<TRIPOS>MOLECULE
ZINC000000001984
36    37    1     0     0
SMALL
USER_CHARGES
@<TRIPOS>ATOM
1      C1      1.0927   -0.3318    2.2742 C.3      1 ZINC000000001984   -0.1700
2      C2      0.5598   -0.2057    0.8456 C.3      1 ZINC000000001984    0.0300
3      C3      1.5743   -0.8027   -0.1317 C.3      1 ZINC000000001984   -0.1100
4      O4     -0.6789   -0.9096    0.7354 O.3      1 ZINC000000001984   -0.3000
5      C5     -1.6935   -0.5004    1.5381 C.ar     1 ZINC000000001984    0.2100
6      C6     -1.5404    0.6364    2.3240 C.ar     1 ZINC000000001984   -0.1700
7      C7     -2.5672    1.0553    3.1394 C.ar     1 ZINC000000001984   -0.0300
8      C8     -3.7658    0.3357    3.1766 C.ar     1 ZINC000000001984   -0.2200
9      C9     -4.8690    0.7810    4.0485 C.2      1 ZINC000000001984    0.4400
10     O10    -4.9285    1.9407    4.4094 O.2      1 ZINC000000001984   -0.4600
11     C11    -5.9017   -0.1817    4.4831 C.ar     1 ZINC000000001984   -0.1400
12     C12    -5.6226   -1.5505    4.4980 C.ar     1 ZINC000000001984   -0.0700
13     C13    -6.5905   -2.4439    4.9051 C.ar     1 ZINC000000001984   -0.1200
14     C14    -7.8378   -1.9868    5.2984 C.ar     1 ZINC000000001984   -0.0100
15     Cl15   -9.0513   -3.1182    5.8092 Cl       1 ZINC000000001984   -0.0700
16     C16    -8.1205   -0.6306    5.2863 C.ar     1 ZINC000000001984   -0.1200
17     C17    -7.1595    0.2733    4.8864 C.ar     1 ZINC000000001984   -0.0600
18     C18    -3.9155   -0.8071    2.3846 C.ar     1 ZINC000000001984   -0.0500
19     C19    -2.8854   -1.2159    1.5681 C.ar     1 ZINC000000001984   -0.1800
20     C20     0.3419    1.2489    0.5173 C.2      1 ZINC000000001984    0.4800
21     O21     1.2785    2.0286    0.5522 O.co2    1 ZINC000000001984   -0.6800
22     O22    -0.7710    1.6459    0.2167 O.co2    1 ZINC000000001984   -0.6700
23     H23     2.0538    0.1768    2.3497 H        1 ZINC000000001984    0.0800
24     H24     0.3853    0.1235    2.9674 H        1 ZINC000000001984    0.0700
25     H25     1.2186   -1.3854    2.5234 H        1 ZINC000000001984    0.0500
26     H26     1.6664   -1.8736    0.0492 H        1 ZINC000000001984    0.0500
27     H27     1.2362   -0.6347   -1.1542 H        1 ZINC000000001984    0.0600
28     H28     2.5433   -0.3251    0.0136 H        1 ZINC000000001984    0.0800
29     H29    -0.6143    1.1913    2.2948 H        1 ZINC000000001984    0.1500
30     H30    -2.4473    1.9382    3.7497 H        1 ZINC000000001984    0.1300
31     H31    -4.6509   -1.9080    4.1909 H        1 ZINC000000001984    0.1500
32     H32    -6.3760   -3.5023    4.9170 H        1 ZINC000000001984    0.1400
33     H33    -9.0947   -0.2805    5.5941 H        1 ZINC000000001984    0.1400
34     H34    -7.3810    1.3303    4.8774 H        1 ZINC000000001984    0.1400
35     H35    -4.8395   -1.3657    2.4103 H        1 ZINC000000001984    0.1300
36     H36    -3.0002   -2.0983    0.9560 H        1 ZINC000000001984    0.1300
@<TRIPOS>BOND
1     1     2     1
2     1     23    1
3     1     24    1
4     1     25    1
5     2     3     1
6     2     4     1
7     2     20    1
8     3     26    1
9     3     27    1
10    3     28    1
11    4     5     1
12    5     19    ar
13    5     6     ar
14    6     7     ar
15    6     29    1
16    7     8     ar
17    7     30    1
18    8     9     1
19    8     18    ar
20    9     10    2
21    9     11    1
22    11    17    ar
23    11    12    ar
24    12    13    ar
25    12    31    1
26    13    14    ar
27    13    32    1
28    14    15    1
29    14    16    ar
30    16    17    ar
31    16    33    1
32    17    34    1
33    18    19    ar
34    18    35    1
35    19    36    1
36    20    21    ar
37    20    22    ar
@<TRIPOS>SUBSTRUCTURE
1   ZINC000000001984 1     RESIDUE    1   A     ZIN   1
