@<TRIPOS>MOLECULE
ZINC000030691727
63    67    1     0     0
SMALL
USER_CHARGES
@<TRIPOS>ATOM
1      O1      0.0021   -0.0041    0.0020 O.2      1 ZINC000030691727   -0.4700
2      C2     -0.0143    1.2041    0.0087 C.2      1 ZINC000030691727    0.4500
3      O3      1.1389    1.8910    0.0013 O.3      1 ZINC000030691727   -0.3300
4      C4      2.3672    1.1168   -0.0145 C.3      1 ZINC000030691727    0.0700
5      H5      2.2069    0.1669    0.4954 H        1 ZINC000030691727    0.1200
6      C6      2.7908    0.8567   -1.4619 C.3      1 ZINC000030691727   -0.0200
7      N7      4.1134    1.4358   -1.7091 N.4      1 ZINC000030691727   -0.2500
8      C8      4.4825    1.1720   -3.1063 C.3      1 ZINC000030691727   -0.0100
9      C9      5.8628    1.7679   -3.3904 C.3      1 ZINC000030691727   -0.1500
10     C10     6.2472    1.4932   -4.8456 C.3      1 ZINC000030691727    0.0600
11     O11     7.5363    2.0498   -5.1110 O.3      1 ZINC000030691727   -0.3100
12     C12     8.0294    1.8928   -6.3676 C.ar     1 ZINC000030691727    0.1200
13     C13     7.2852    1.2219   -7.3272 C.ar     1 ZINC000030691727   -0.2100
14     C14     7.7884    1.0640   -8.6040 C.ar     1 ZINC000030691727   -0.0800
15     C15     9.0328    1.5735   -8.9258 C.ar     1 ZINC000030691727   -0.1500
16     C16     9.7767    2.2421   -7.9711 C.ar     1 ZINC000030691727   -0.0800
17     C17     9.2752    2.4080   -6.6946 C.ar     1 ZINC000030691727   -0.1500
18     C18     4.0854    2.8873   -1.5143 C.3      1 ZINC000030691727   -0.0100
19     C19     3.7047    3.2148   -0.0687 C.3      1 ZINC000030691727   -0.1400
20     C20     3.4783    1.9008    0.6961 C.3      1 ZINC000030691727   -0.1000
21     C21     4.7700    1.0751    0.6318 C.3      1 ZINC000030691727   -0.1300
22     C22     5.1175    0.8178   -0.8399 C.3      1 ZINC000030691727   -0.0200
23     C23    -1.3295    1.9397    0.0189 C.3      1 ZINC000030691727    0.3200
24     O24    -1.2027    3.1312    0.7976 O.3      1 ZINC000030691727   -0.5100
25     C25    -1.7142    2.3007   -1.3928 C.2      1 ZINC000030691727   -0.2300
26     C26    -1.3754    3.4297   -2.0172 C.2      1 ZINC000030691727   -0.0700
27     C27    -1.8439    3.5416   -3.3150 C.2      1 ZINC000030691727   -0.1500
28     C28    -2.5631    2.5035   -3.7443 C.2      1 ZINC000030691727   -0.1900
29     S29    -2.6720    1.2945   -2.4715 S.3      1 ZINC000030691727    0.1500
30     C30    -2.3937    1.0579    0.6196 C.2      1 ZINC000030691727   -0.2400
31     C31    -2.7108    1.0084    1.9143 C.2      1 ZINC000030691727   -0.0900
32     C32    -3.7241    0.1210    2.2332 C.2      1 ZINC000030691727   -0.1400
33     C33    -4.2300   -0.5502    1.1974 C.2      1 ZINC000030691727   -0.1900
34     S34    -3.4128   -0.0580   -0.2802 S.3      1 ZINC000030691727    0.1500
35     H35     2.8273   -0.2179   -1.6406 H        1 ZINC000030691727    0.1400
36     H36     2.0656    1.3097   -2.1379 H        1 ZINC000030691727    0.1400
37     H37     4.5089    0.0960   -3.2782 H        1 ZINC000030691727    0.1300
38     H38     3.7466    1.6279   -3.7687 H        1 ZINC000030691727    0.1300
39     H39     5.8364    2.8439   -3.2185 H        1 ZINC000030691727    0.1000
40     H40     6.5986    1.3121   -2.7280 H        1 ZINC000030691727    0.1000
41     H41     6.2736    0.4172   -5.0175 H        1 ZINC000030691727    0.0700
42     H42     5.5113    1.9491   -5.5081 H        1 ZINC000030691727    0.0700
43     H43     6.3134    0.8231   -7.0761 H        1 ZINC000030691727    0.1200
44     H44     7.2094    0.5419   -9.3514 H        1 ZINC000030691727    0.1300
45     H45     9.4246    1.4488   -9.9244 H        1 ZINC000030691727    0.1300
46     H46    10.7486    2.6389   -8.2248 H        1 ZINC000030691727    0.1300
47     H47     9.8566    2.9303   -5.9492 H        1 ZINC000030691727    0.1300
48     H48     5.0705    3.3004   -1.7313 H        1 ZINC000030691727    0.1300
49     H49     3.3530    3.3288   -2.1901 H        1 ZINC000030691727    0.1300
50     H50     4.5107    3.7770    0.4029 H        1 ZINC000030691727    0.1100
51     H51     2.7890    3.8059   -0.0571 H        1 ZINC000030691727    0.1100
52     H52     3.1966    2.1083    1.7284 H        1 ZINC000030691727    0.1300
53     H53     5.5810    1.6281    1.1057 H        1 ZINC000030691727    0.1100
54     H54     4.6228    0.1258    1.1469 H        1 ZINC000030691727    0.1100
55     H55     5.1406   -0.2564   -1.0236 H        1 ZINC000030691727    0.1300
56     H56     6.0974    1.2416   -1.0596 H        1 ZINC000030691727    0.1400
57     H57    -0.9564    2.9743    1.7194 H        1 ZINC000030691727    0.3900
58     H58    -0.7810    4.1984   -1.5459 H        1 ZINC000030691727    0.1500
59     H59    -1.6427    4.4042   -3.9329 H        1 ZINC000030691727    0.1500
60     H60    -3.0075    2.4169   -4.7249 H        1 ZINC000030691727    0.1700
61     H61    -2.2142    1.6146    2.6576 H        1 ZINC000030691727    0.1400
62     H62    -4.0781   -0.0177    3.2441 H        1 ZINC000030691727    0.1500
63     H63    -5.0226   -1.2814    1.2566 H        1 ZINC000030691727    0.1700
@<TRIPOS>BOND
1     1     2     2
2     2     3     1
3     2     23    1
4     3     4     1
5     4     5     1
6     4     20    1
7     4     6     1
8     6     7     1
9     6     35    1
10    6     36    1
11    7     22    1
12    7     8     1
13    7     18    1
14    8     9     1
15    8     37    1
16    8     38    1
17    9     10    1
18    9     39    1
19    9     40    1
20    10    11    1
21    10    41    1
22    10    42    1
23    11    12    1
24    12    17    ar
25    12    13    ar
26    13    14    ar
27    13    43    1
28    14    15    ar
29    14    44    1
30    15    16    ar
31    15    45    1
32    16    17    ar
33    16    46    1
34    17    47    1
35    18    19    1
36    18    48    1
37    18    49    1
38    19    20    1
39    19    50    1
40    19    51    1
41    20    21    1
42    20    52    1
43    21    22    1
44    21    53    1
45    21    54    1
46    22    55    1
47    22    56    1
48    23    24    1
49    23    25    1
50    23    30    1
51    24    57    1
52    25    29    1
53    25    26    2
54    26    27    1
55    26    58    1
56    27    28    2
57    27    59    1
58    28    29    1
59    28    60    1
60    30    34    1
61    30    31    2
62    31    32    1
63    31    61    1
64    32    33    2
65    32    62    1
66    33    34    1
67    33    63    1
@<TRIPOS>SUBSTRUCTURE
1   ZINC000030691727 1     RESIDUE    1   A     ZIN   1
