@<TRIPOS>MOLECULE
ZINC000004392649
37   39    0    0    0
SMALL
USER_CHARGES
NO_NAME
@<TRIPOS>ATOM
1 C1       -0.0187     1.5258     0.0104 C.3    1 <0>      -0.1400
2 C2        0.0021    -0.0041     0.0020 C.3    1 <0>      -0.1400
3 C3        0.7309    -0.5033     1.2229 C.2    1 <0>       0.5100
4 O4        1.1887     0.2867     2.0212 O.2    1 <0>      -0.5400
5 N5        0.8741    -1.8277     1.4277 N.am   1 <0>      -0.7300
6 C6        1.5826    -2.3130     2.6146 C.3    1 <0>       0.1500
7 C7        1.6034    -3.8428     2.6062 C.3    1 <0>      -0.1500
8 H8        1.5904    -4.3077     1.6204 H      1 <0>       0.1100
9 C9        0.8699    -4.5655     3.7378 C.3    1 <0>      -0.1600
10 C10       2.4002    -4.5446     3.7078 C.3    1 <0>      -0.1100
11 H11       2.9094    -3.9165     4.4387 H      1 <0>       0.1200
12 C12       3.1067    -5.8261     3.3476 C.ar   1 <0>       0.0000
13 C13       2.3817    -6.9088     2.8825 C.ar   1 <0>      -0.1500
14 C14       3.0352    -8.0821     2.5529 C.ar   1 <0>      -0.0800
15 C15       4.4052    -8.1766     2.6815 C.ar   1 <0>      -0.1400
16 C16       5.1428    -7.0902     3.1460 C.ar   1 <0>       0.1100
17 C17       4.4750    -5.9180     3.4759 C.ar   1 <0>      -0.1700
18 C18       5.5197    -4.9346     3.9671 C.3    1 <0>      -0.1100
19 C19       6.7330    -5.8591     4.2253 C.3    1 <0>       0.0500
20 O20       6.4848    -6.9631     3.3359 O.3    1 <0>      -0.3000
21 H21       1.0039     1.9031     0.0027 H      1 <0>       0.0600
22 H22      -0.5459     1.8868    -0.8726 H      1 <0>       0.0600
23 H23      -0.5289     1.8773     0.9072 H      1 <0>       0.0600
24 H24      -1.0205    -0.3814     0.0098 H      1 <0>       0.0900
25 H25       0.5123    -0.3556    -0.8948 H      1 <0>       0.0900
26 H26       0.5079    -2.4595     0.7893 H      1 <0>       0.4000
27 H27       2.6052    -1.9357     2.6069 H      1 <0>       0.0700
28 H28       1.0724    -1.9615     3.5114 H      1 <0>       0.0700
29 H29       0.3726    -3.9511     4.4883 H      1 <0>       0.1000
30 H30       0.3747    -5.5061     3.4966 H      1 <0>       0.1000
31 H31       1.3092    -6.8380     2.7776 H      1 <0>       0.1300
32 H32       2.4697    -8.9291     2.1933 H      1 <0>       0.1300
33 H33       4.9079    -9.0964     2.4214 H      1 <0>       0.1300
34 H34       5.7497    -4.1951     3.2001 H      1 <0>       0.0900
35 H35       5.1960    -4.4503     4.8884 H      1 <0>       0.0900
36 H36       7.6640    -5.3566     3.9632 H      1 <0>       0.1100
37 H37       6.7512    -6.1915     5.2632 H      1 <0>       0.0800
@<TRIPOS>BOND
1    1    2 1
2    1   21 1
3    1   22 1
4    1   23 1
5    2    3 1
6    2   24 1
7    2   25 1
8    3    4 2
9    3    5 am
10    5    6 1
11    5   26 1
12    6    7 1
13    6   27 1
14    6   28 1
15    7    8 1
16    7   10 1
17    7    9 1
18    9   10 1
19    9   29 1
20    9   30 1
21   10   11 1
22   10   12 1
23   12   17 ar
24   12   13 ar
25   13   14 ar
26   13   31 1
27   14   15 ar
28   14   32 1
29   15   16 ar
30   15   33 1
31   16   20 1
32   16   17 ar
33   17   18 1
34   18   19 1
35   18   34 1
36   18   35 1
37   19   20 1
38   19   36 1
39   19   37 1
