@<TRIPOS>MOLECULE
ZINC000001493878
48   50    0    0    0
SMALL
USER_CHARGES
NO_NAME
@<TRIPOS>ATOM
1 C1        6.6214    -4.9533     2.4203 C.3    1 <0>       0.0800
2 N2        5.7996    -4.2421     1.4379 N.am   1 <0>      -0.7100
3 C3        5.0200    -4.9344     0.5839 C.2    1 <0>       0.5700
4 O4        4.9988    -6.1486     0.6288 O.2    1 <0>      -0.5300
5 C5        4.1888    -4.2151    -0.4097 C.ar   1 <0>       0.1100
6 C6        3.3824    -4.9355    -1.2840 C.ar   1 <0>      -0.1900
7 C7        2.6067    -4.2442    -2.2118 C.ar   1 <0>       0.1600
8 O8        1.8060    -4.9099    -3.0824 O.3    1 <0>      -0.2400
9 C9        1.8608    -6.2683    -3.0892 C.ar   1 <0>       0.0600
10 C10       1.2529    -6.9919    -2.0734 C.ar   1 <0>      -0.1100
11 C11       1.3086    -8.3716    -2.0795 C.ar   1 <0>      -0.1000
12 C12       1.9727    -9.0348    -3.1027 C.ar   1 <0>       0.1700
13 N13       2.0291   -10.4348    -3.1096 N.am   1 <0>      -0.6800
14 C14       0.9821   -11.1537    -2.6587 C.2    1 <0>       0.7100
15 O15       0.0224   -10.5892    -2.1699 O.2    1 <0>      -0.5500
16 N16       0.9987   -12.4983    -2.7496 N.am   1 <0>      -0.6800
17 C17      -0.1331   -13.2384    -2.3877 C.ar   1 <0>       0.1700
18 C18      -1.4025   -12.7312    -2.6307 C.ar   1 <0>      -0.0700
19 C19      -2.5177   -13.4636    -2.2730 C.ar   1 <0>      -0.0900
20 C20      -2.3706   -14.7017    -1.6731 C.ar   1 <0>      -0.0100
21 Cl21     -3.7741   -15.6197    -1.2249 Cl     1 <0>      -0.0400
22 C22      -1.1063   -15.2098    -1.4302 C.ar   1 <0>      -0.1600
23 C23      -0.9497   -16.5591    -0.7776 C.3    1 <0>       0.5100
24 F24       0.4106   -16.8545    -0.6378 F      1 <0>      -0.1700
25 F25      -1.5548   -16.5400     0.4837 F      1 <0>      -0.1700
26 F26      -1.5596   -17.5353    -1.5727 F      1 <0>      -0.1700
27 C27       0.0118   -14.4837    -1.7902 C.ar   1 <0>      -0.0900
28 C28       2.5804    -8.3102    -4.1192 C.ar   1 <0>      -0.1300
29 C29       2.5196    -6.9307    -4.1149 C.ar   1 <0>      -0.0900
30 C30       2.6727    -2.8537    -2.2239 C.ar   1 <0>      -0.1800
31 C31       3.4992    -2.2077    -1.3220 C.ar   1 <0>       0.1400
32 N32       4.2167    -2.8878    -0.4535 N.ar   1 <0>      -0.4800
33 H33       5.9783    -5.5451     3.0716 H      1 <0>       0.0600
34 H34       7.3186    -5.6118     1.9022 H      1 <0>       0.0600
35 H35       7.1788    -4.2320     3.0180 H      1 <0>       0.0800
36 H36       5.8166    -3.2729     1.4021 H      1 <0>       0.4100
37 H37       3.3581    -6.0145    -1.2446 H      1 <0>       0.1500
38 H38       0.7364    -6.4759    -1.2775 H      1 <0>       0.1400
39 H39       0.8360    -8.9347    -1.2883 H      1 <0>       0.1500
40 H40       2.8218   -10.8866    -3.4390 H      1 <0>       0.4100
41 H41       1.7949   -12.9533    -3.0658 H      1 <0>       0.4100
42 H42      -1.5179   -11.7647    -3.0985 H      1 <0>       0.1500
43 H43      -3.5054   -13.0694    -2.4615 H      1 <0>       0.1500
44 H44       0.9982   -14.8807    -1.6008 H      1 <0>       0.1500
45 H45       3.0974    -8.8255    -4.9152 H      1 <0>       0.1400
46 H46       2.9920    -6.3670    -4.9058 H      1 <0>       0.1400
47 H47       2.0852    -2.2855    -2.9299 H      1 <0>       0.1500
48 H48       3.5535    -1.1290    -1.3283 H      1 <0>       0.1700
@<TRIPOS>BOND
1    1    2 1
2    1   33 1
3    1   34 1
4    1   35 1
5    2    3 am
6    2   36 1
7    3    4 2
8    3    5 1
9    5   32 ar
10    5    6 ar
11    6    7 ar
12    6   37 1
13    7    8 1
14    7   30 ar
15    8    9 1
16    9   29 ar
17    9   10 ar
18   10   11 ar
19   10   38 1
20   11   12 ar
21   11   39 1
22   12   13 1
23   12   28 ar
24   13   14 am
25   13   40 1
26   14   15 2
27   14   16 am
28   16   17 1
29   16   41 1
30   17   27 ar
31   17   18 ar
32   18   19 ar
33   18   42 1
34   19   20 ar
35   19   43 1
36   20   21 1
37   20   22 ar
38   22   23 1
39   22   27 ar
40   23   24 1
41   23   25 1
42   23   26 1
43   27   44 1
44   28   29 ar
45   28   45 1
46   29   46 1
47   30   31 ar
48   30   47 1
49   31   32 ar
50   31   48 1
