@<TRIPOS>MOLECULE
ZINC000000154964
41   42    0    0    0
SMALL
USER_CHARGES
NO_NAME
@<TRIPOS>ATOM
1 C1       -1.9055    -2.1427     2.0248 C.3    1 <0>      -0.1200
2 C2       -0.8914    -1.7524     0.9806 C.ar   1 <0>      -0.0800
3 C3       -0.9508    -2.3081    -0.2824 C.ar   1 <0>      -0.1100
4 C4       -0.0204    -1.9508    -1.2410 C.ar   1 <0>      -0.1000
5 C5        0.9718    -1.0362    -0.9388 C.ar   1 <0>      -0.1100
6 C6        1.0363    -0.4765     0.3222 C.ar   1 <0>      -0.0600
7 C7        2.1176     0.5205     0.6505 C.3    1 <0>      -0.1100
8 C8        0.1003    -0.8293     1.2855 C.ar   1 <0>       0.1100
9 N9        0.1626    -0.2638     2.5639 N.am   1 <0>      -0.6400
10 C10       0.1796     1.0762     2.7079 C.2    1 <0>       0.5100
11 O11       0.2419     1.7905     1.7297 O.2    1 <0>      -0.5000
12 C12       0.1211     1.6869     4.0844 C.3    1 <0>       0.0100
13 H13       0.9985     1.3814     4.6544 H      1 <0>       0.1600
14 C14      -1.1437     1.2085     4.8006 C.3    1 <0>      -0.1400
15 C15      -2.3733     1.6403     3.9965 C.3    1 <0>      -0.1400
16 C16      -2.3468     3.1612     3.8191 C.3    1 <0>      -0.1400
17 C17      -1.0375     3.5672     3.1392 C.3    1 <0>      -0.0400
18 N18       0.0982     3.1500     3.9693 N.4    1 <0>      -0.3600
19 H19       0.0094     3.5573     4.8881 H      1 <0>       0.4300
20 C20       1.3493     3.6084     3.3508 C.3    1 <0>      -0.0700
21 H21      -2.7200    -1.4184     2.0290 H      1 <0>       0.0700
22 H22      -2.3005    -3.1324     1.7956 H      1 <0>       0.0800
23 H23      -1.4293    -2.1597     3.0052 H      1 <0>       0.0600
24 H24      -1.7245    -3.0227    -0.5215 H      1 <0>       0.1300
25 H25      -0.0685    -2.3873    -2.2277 H      1 <0>       0.1300
26 H26       1.6971    -0.7595    -1.6896 H      1 <0>       0.1300
27 H27       1.8048     1.5143     0.3304 H      1 <0>       0.0900
28 H28       2.2941     0.5240     1.7261 H      1 <0>       0.0500
29 H29       3.0360     0.2442     0.1325 H      1 <0>       0.0700
30 H30       0.1936    -0.8361     3.3464 H      1 <0>       0.4200
31 H31      -1.1261     0.1218     4.8835 H      1 <0>       0.1100
32 H32      -1.1868     1.6495     5.7965 H      1 <0>       0.1100
33 H33      -2.3568     1.1589     3.0187 H      1 <0>       0.0800
34 H34      -3.2783     1.3514     4.5310 H      1 <0>       0.1000
35 H35      -3.1893     3.4702     3.2003 H      1 <0>       0.1100
36 H36      -2.4149     3.6427     4.7946 H      1 <0>       0.0900
37 H37      -0.9705     3.0854     2.1637 H      1 <0>       0.1600
38 H38      -1.0154     4.6494     3.0112 H      1 <0>       0.1300
39 H39       1.3377     4.6953     3.2699 H      1 <0>       0.1300
40 H40       2.1937     3.2990     3.9668 H      1 <0>       0.1200
41 H41       1.4450     3.1710     2.3570 H      1 <0>       0.1400
@<TRIPOS>BOND
1    1    2 1
2    1   21 1
3    1   22 1
4    1   23 1
5    2    8 ar
6    2    3 ar
7    3    4 ar
8    3   24 1
9    4    5 ar
10    4   25 1
11    5    6 ar
12    5   26 1
13    6    7 1
14    6    8 ar
15    7   27 1
16    7   28 1
17    7   29 1
18    8    9 1
19    9   10 am
20    9   30 1
21   10   11 2
22   10   12 1
23   12   13 1
24   12   18 1
25   12   14 1
26   14   15 1
27   14   31 1
28   14   32 1
29   15   16 1
30   15   33 1
31   15   34 1
32   16   17 1
33   16   35 1
34   16   36 1
35   17   18 1
36   17   37 1
37   17   38 1
38   18   19 1
39   18   20 1
40   20   39 1
41   20   40 1
42   20   41 1
