@<TRIPOS>MOLECULE
ZINC000000089763
28    29    1     0     0
SMALL
USER_CHARGES
@<TRIPOS>ATOM
1      C1     -0.0184    1.5028    0.0103 C.3      1 ZINC000000089763   -0.0800
2      C2      0.0021   -0.0041    0.0020 C.2      1 ZINC000000089763    0.0000
3      C3     -1.0712   -0.8265    0.0024 C.2      1 ZINC000000089763   -0.2500
4      C4     -0.5044   -2.1295   -0.0072 C.2      1 ZINC000000089763    0.2700
5      N5     -1.1913   -3.3390   -0.0111 N.am     1 ZINC000000089763   -1.0100
6      S6     -0.3531   -4.7672   -0.0226 S.o2     1 ZINC000000089763    2.6900
7      O7     -1.3251   -5.8032    0.0105 O.2      1 ZINC000000089763   -0.9500
8      O8      0.6241   -4.6507   -1.0476 O.2      1 ZINC000000089763   -0.9300
9      C9      0.5308   -4.8655    1.4986 C.ar     1 ZINC000000089763   -0.7300
10     C10     1.8093   -4.3462    1.5883 C.ar     1 ZINC000000089763    0.0500
11     C11     2.5048   -4.4216    2.7790 C.ar     1 ZINC000000089763   -0.2200
12     C12     1.9187   -5.0198    3.8873 C.ar     1 ZINC000000089763    0.2700
13     N13     2.6191   -5.0972    5.0932 N.pl3    1 ZINC000000089763   -0.8700
14     C14     0.6342   -5.5403    3.7937 C.ar     1 ZINC000000089763   -0.2200
15     C15    -0.0579   -5.4566    2.6015 C.ar     1 ZINC000000089763    0.0300
16     N16     0.7927   -1.9630   -0.0122 N.2      1 ZINC000000089763   -0.3900
17     O17     1.0882   -0.7905   -0.0130 O.3      1 ZINC000000089763    0.1000
18     H18     1.0042    1.8801    0.0026 H        1 ZINC000000089763    0.0900
19     H19    -0.5455    1.8639   -0.8728 H        1 ZINC000000089763    0.0900
20     H20    -0.5286    1.8543    0.9071 H        1 ZINC000000089763    0.0900
21     H21    -2.1167   -0.5558    0.0089 H        1 ZINC000000089763    0.1800
22     H22    -2.1613   -3.3460   -0.0071 H        1 ZINC000000089763    0.4400
23     H23     2.2645   -3.8816    0.7262 H        1 ZINC000000089763    0.1500
24     H24     3.5035   -4.0162    2.8484 H        1 ZINC000000089763    0.1300
25     H25     3.5159   -4.7331    5.1575 H        1 ZINC000000089763    0.4000
26     H26     2.2088   -5.5152    5.8665 H        1 ZINC000000089763    0.4000
27     H27     0.1758   -6.0064    4.6533 H        1 ZINC000000089763    0.1300
28     H28    -1.0565   -5.8611    2.5280 H        1 ZINC000000089763    0.1400
@<TRIPOS>BOND
1     1     2     1
2     1     18    1
3     1     19    1
4     1     20    1
5     2     17    1
6     2     3     2
7     3     4     1
8     3     21    1
9     4     5     1
10    4     16    2
11    5     6     am
12    5     22    1
13    6     7     2
14    6     8     2
15    6     9     1
16    9     15    ar
17    9     10    ar
18    10    11    ar
19    10    23    1
20    11    12    ar
21    11    24    1
22    12    13    1
23    12    14    ar
24    13    25    1
25    13    26    1
26    14    15    ar
27    14    27    1
28    15    28    1
29    16    17    1
@<TRIPOS>SUBSTRUCTURE
1   ZINC000000089763 1     RESIDUE    1   A     ZIN   1
