@<TRIPOS>MOLECULE
ZINC000000001011
14    14    1     0     0
SMALL
USER_CHARGES
@<TRIPOS>ATOM
1      O1      0.0021   -0.0041    0.0020 O.co2    1 ZINC000000001011   -0.6900
2      C2     -0.0145    1.2187    0.0087 C.2      1 ZINC000000001011    0.5200
3      O3      1.0361    1.8445    0.0021 O.co2    1 ZINC000000001011   -0.6900
4      C4     -1.3021    1.9390    0.0188 C.ar     1 ZINC000000001011   -0.1400
5      C5     -1.3249    3.3360    0.0206 C.ar     1 ZINC000000001011   -0.0900
6      C6     -2.5323    4.0025    0.0295 C.ar     1 ZINC000000001011   -0.1400
7      C7     -3.7192    3.2911    0.0366 C.ar     1 ZINC000000001011   -0.1300
8      C8     -3.7043    1.9073    0.0348 C.ar     1 ZINC000000001011   -0.1400
9      C9     -2.5045    1.2273    0.0206 C.ar     1 ZINC000000001011   -0.0900
10     H10    -0.3994    3.8925    0.0154 H        1 ZINC000000001011    0.1200
11     H11    -2.5515    5.0824    0.0313 H        1 ZINC000000001011    0.1100
12     H12    -4.6618    3.8183    0.0439 H        1 ZINC000000001011    0.1100
13     H13    -4.6345    1.3585    0.0404 H        1 ZINC000000001011    0.1100
14     H14    -2.4943    0.1474    0.0192 H        1 ZINC000000001011    0.1200
@<TRIPOS>BOND
1     1     2     ar
2     2     3     ar
3     2     4     1
4     4     9     ar
5     4     5     ar
6     5     6     ar
7     5     10    1
8     6     7     ar
9     6     11    1
10    7     8     ar
11    7     12    1
12    8     9     ar
13    8     13    1
14    9     14    1
@<TRIPOS>SUBSTRUCTURE
1   ZINC000000001011 1     RESIDUE    1   A     ZIN   1
