@<TRIPOS>MOLECULE
ZINC000068247389
64    68    1     0     0
SMALL
USER_CHARGES
@<TRIPOS>ATOM
1      C1     -0.0173    1.4248    0.0099 C.3      1 ZINC000068247389    0.0500
2      O2      0.0021   -0.0041    0.0020 O.3      1 ZINC000068247389   -0.3000
3      C3      0.6065   -0.6078   -1.0570 C.ar     1 ZINC000068247389    0.0700
4      C4     -0.1256   -0.9231   -2.1915 C.ar     1 ZINC000068247389    0.1500
5      O5     -1.4510   -0.6266   -2.2411 O.3      1 ZINC000068247389   -0.3000
6      C6     -2.1499   -0.9766   -3.4374 C.3      1 ZINC000068247389    0.0600
7      C7     -3.6187   -0.5683   -3.3080 C.3      1 ZINC000068247389   -0.1500
8      C8     -4.3669   -0.9431   -4.5889 C.3      1 ZINC000068247389   -0.0100
9      N9     -5.7772   -0.5511   -4.4647 N.4      1 ZINC000068247389   -0.3800
10     H10    -6.1699   -0.9665   -3.6332 H        1 ZINC000068247389    0.4200
11     C11    -6.5209   -1.0169   -5.6433 C.3      1 ZINC000068247389   -0.0400
12     C12    -7.9899   -0.6074   -5.5114 C.3      1 ZINC000068247389    0.0400
13     O13    -8.0722    0.8131   -5.3659 O.3      1 ZINC000068247389   -0.3600
14     C14    -7.3430    1.3183   -4.2439 C.3      1 ZINC000068247389    0.0400
15     C15    -5.8727    0.9124   -4.3733 C.3      1 ZINC000068247389   -0.0500
16     C16     0.4838   -1.5400   -3.2806 C.ar     1 ZINC000068247389   -0.2300
17     C17     1.8266   -1.8481   -3.2481 C.ar     1 ZINC000068247389    0.0000
18     C18     2.5771   -1.5391   -2.1168 C.ar     1 ZINC000068247389   -0.1500
19     C19     1.9717   -0.9091   -1.0103 C.ar     1 ZINC000068247389    0.2000
20     N20     2.7207   -0.6170    0.0839 N.2      1 ZINC000068247389   -0.5100
21     C21     3.9928   -0.9028    0.1446 C.2      1 ZINC000068247389    0.6400
22     N22     4.6852   -0.5748    1.2907 N.am     1 ZINC000068247389   -0.6500
23     C23     4.0475    0.0266    2.3145 C.2      1 ZINC000068247389    0.5800
24     O24     2.8616    0.2798    2.2273 O.2      1 ZINC000068247389   -0.4400
25     C25     4.7883    0.3776    3.5406 C.ar     1 ZINC000068247389   -0.3200
26     C26     6.1567    0.0994    3.6583 C.ar     1 ZINC000068247389    0.2400
27     N27     6.7832    0.4292    4.7719 N.ar     1 ZINC000068247389   -0.5700
28     C28     6.1353    1.0156    5.7701 C.ar     1 ZINC000068247389    0.5900
29     N29     6.8281    1.3442    6.9166 N.pl3    1 ZINC000068247389   -0.8000
30     N30     4.8405    1.2956    5.6976 N.ar     1 ZINC000068247389   -0.5700
31     C31     4.1434    1.0031    4.6161 C.ar     1 ZINC000068247389    0.2700
32     N32     4.6718   -1.5128   -0.8745 N.pl3    1 ZINC000068247389   -0.5900
33     C33     6.0841   -1.9107   -0.9924 C.3      1 ZINC000068247389    0.0600
34     C34     6.1645   -2.5407   -2.3955 C.3      1 ZINC000068247389    0.0300
35     N35     4.7972   -2.4314   -2.9156 N.2      1 ZINC000068247389   -0.5300
36     C36     4.0214   -1.8537   -2.0420 C.2      1 ZINC000068247389    0.4100
37     H37     1.0053    1.8021    0.0021 H        1 ZINC000068247389    0.0500
38     H38    -0.5445    1.7859   -0.8732 H        1 ZINC000068247389    0.0400
39     H39    -0.5275    1.7763    0.9067 H        1 ZINC000068247389    0.0900
40     H40    -1.7018   -0.4579   -4.2849 H        1 ZINC000068247389    0.0800
41     H41    -2.0845   -2.0533   -3.5946 H        1 ZINC000068247389    0.0800
42     H42    -4.0667   -1.0871   -2.4605 H        1 ZINC000068247389    0.1000
43     H43    -3.6840    0.5083   -3.1508 H        1 ZINC000068247389    0.1000
44     H44    -3.9189   -0.4243   -5.4364 H        1 ZINC000068247389    0.1400
45     H45    -4.3016   -2.0197   -4.7461 H        1 ZINC000068247389    0.1400
46     H46    -6.0974   -0.5674   -6.5415 H        1 ZINC000068247389    0.1400
47     H47    -6.4507   -2.1024   -5.7118 H        1 ZINC000068247389    0.1400
48     H48    -8.5348   -0.9141   -6.4042 H        1 ZINC000068247389    0.1400
49     H49    -8.4247   -1.0888   -4.6354 H        1 ZINC000068247389    0.0800
50     H50    -7.4197    2.4053   -4.2194 H        1 ZINC000068247389    0.1400
51     H51    -7.7556    0.9028   -3.3246 H        1 ZINC000068247389    0.0800
52     H52    -5.3215    1.2590   -3.4991 H        1 ZINC000068247389    0.1400
53     H53    -5.4493    1.3610   -5.2719 H        1 ZINC000068247389    0.1400
54     H54    -0.1000   -1.7793   -4.1571 H        1 ZINC000068247389    0.1400
55     H55     2.2943   -2.3270   -4.0957 H        1 ZINC000068247389    0.1500
56     H56     5.6314   -0.7768    1.3602 H        1 ZINC000068247389    0.4200
57     H57     6.6905   -0.3781    2.8499 H        1 ZINC000068247389    0.1700
58     H58     7.7753    1.1461    6.9844 H        1 ZINC000068247389    0.4200
59     H59     6.3683    1.7733    7.6550 H        1 ZINC000068247389    0.4200
60     H60     3.0897    1.2343    4.5639 H        1 ZINC000068247389    0.1900
61     H61     6.7353   -1.0392   -0.9252 H        1 ZINC000068247389    0.1000
62     H62     6.3416   -2.6433   -0.2275 H        1 ZINC000068247389    0.1000
63     H63     6.8581   -1.9833   -3.0250 H        1 ZINC000068247389    0.1000
64     H64     6.4647   -3.5863   -2.3278 H        1 ZINC000068247389    0.1000
@<TRIPOS>BOND
1     1     2     1
2     1     37    1
3     1     38    1
4     1     39    1
5     2     3     1
6     3     19    ar
7     3     4     ar
8     4     5     1
9     4     16    ar
10    5     6     1
11    6     7     1
12    6     40    1
13    6     41    1
14    7     8     1
15    7     42    1
16    7     43    1
17    8     9     1
18    8     44    1
19    8     45    1
20    9     10    1
21    9     15    1
22    9     11    1
23    11    12    1
24    11    46    1
25    11    47    1
26    12    13    1
27    12    48    1
28    12    49    1
29    13    14    1
30    14    15    1
31    14    50    1
32    14    51    1
33    15    52    1
34    15    53    1
35    16    17    ar
36    16    54    1
37    17    18    ar
38    17    55    1
39    18    36    1
40    18    19    ar
41    19    20    1
42    20    21    2
43    21    22    1
44    21    32    1
45    22    23    am
46    22    56    1
47    23    24    2
48    23    25    1
49    25    31    ar
50    25    26    ar
51    26    27    ar
52    26    57    1
53    27    28    ar
54    28    29    1
55    28    30    ar
56    29    58    1
57    29    59    1
58    30    31    ar
59    31    60    1
60    32    36    1
61    32    33    1
62    33    34    1
63    33    61    1
64    33    62    1
65    34    35    1
66    34    63    1
67    34    64    1
68    35    36    2
@<TRIPOS>SUBSTRUCTURE
1   ZINC000068247389 1     RESIDUE    1   A     ZIN   1
