@<TRIPOS>MOLECULE
ZINC000000403010
48    49    1     0     0
SMALL
USER_CHARGES
@<TRIPOS>ATOM
1      C1     -0.0187    1.5258    0.0104 C.3      1 ZINC000000403010   -0.1800
2      C2      0.0021   -0.0041    0.0020 C.3      1 ZINC000000403010    0.0300
3      H3      0.5293   -0.3651    0.8851 H        1 ZINC000000403010    0.1400
4      C4     -1.4333   -0.5336    0.0129 C.3      1 ZINC000000403010   -0.1400
5      C5     -1.4133   -2.0590    0.1302 C.3      1 ZINC000000403010   -0.0900
6      C6     -2.8271   -2.5806    0.1409 C.ar     1 ZINC000000403010   -0.1000
7      C7     -3.5022   -2.7230    1.3388 C.ar     1 ZINC000000403010   -0.1100
8      C8     -4.7990   -3.2015    1.3486 C.ar     1 ZINC000000403010   -0.1200
9      C9     -5.4209   -3.5371    0.1605 C.ar     1 ZINC000000403010   -0.1100
10     C10    -4.7461   -3.3939   -1.0374 C.ar     1 ZINC000000403010   -0.1200
11     C11    -3.4508   -2.9114   -1.0476 C.ar     1 ZINC000000403010   -0.1200
12     N12     0.6897   -0.4778   -1.2066 N.4      1 ZINC000000403010   -0.5100
13     H13     0.6317   -1.4840   -1.2539 H        1 ZINC000000403010    0.4300
14     H14     0.2511   -0.0769   -2.0221 H        1 ZINC000000403010    0.4200
15     C15     2.1002   -0.0703   -1.1590 C.3      1 ZINC000000403010   -0.0500
16     C16     2.8163   -0.5637   -2.4178 C.3      1 ZINC000000403010    0.1600
17     H17     2.3425   -0.1306   -3.2988 H        1 ZINC000000403010    0.1100
18     O18     2.7343   -1.9888   -2.4849 O.3      1 ZINC000000403010   -0.5600
19     C19     4.2634   -0.1456   -2.3691 C.ar     1 ZINC000000403010   -0.3100
20     C20     5.1863   -0.9332   -1.7011 C.ar     1 ZINC000000403010   -0.0400
21     C21     6.5151   -0.5605   -1.6490 C.ar     1 ZINC000000403010   -0.2500
22     C22     6.9340    0.6078   -2.2675 C.ar     1 ZINC000000403010    0.3100
23     O23     8.2390    0.9750   -2.2175 O.3      1 ZINC000000403010   -0.6400
24     C24     6.0031    1.4074   -2.9449 C.ar     1 ZINC000000403010   -0.2900
25     C25     6.4370    2.6526   -3.6067 C.2      1 ZINC000000403010    0.5600
26     N26     5.5387    3.4185   -4.2569 N.am     1 ZINC000000403010   -0.8700
27     O27     7.6051    2.9878   -3.5654 O.2      1 ZINC000000403010   -0.5200
28     C28     4.6633    1.0159   -2.9941 C.ar     1 ZINC000000403010   -0.0100
29     H29     1.0039    1.9031    0.0027 H        1 ZINC000000403010    0.0900
30     H30    -0.5459    1.8868   -0.8726 H        1 ZINC000000403010    0.0800
31     H31    -0.5289    1.8773    0.9072 H        1 ZINC000000403010    0.1000
32     H32    -1.9701   -0.1109    0.8621 H        1 ZINC000000403010    0.1100
33     H33    -1.9334   -0.2470   -0.9122 H        1 ZINC000000403010    0.0900
34     H34    -0.8764   -2.4817   -0.7190 H        1 ZINC000000403010    0.0700
35     H35    -0.9132   -2.3457    1.0553 H        1 ZINC000000403010    0.0900
36     H36    -3.0163   -2.4608    2.2670 H        1 ZINC000000403010    0.1200
37     H37    -5.3263   -3.3135    2.2845 H        1 ZINC000000403010    0.1300
38     H38    -6.4339   -3.9116    0.1683 H        1 ZINC000000403010    0.1300
39     H39    -5.2319   -3.6564   -1.9656 H        1 ZINC000000403010    0.1300
40     H40    -2.9236   -2.7994   -1.9835 H        1 ZINC000000403010    0.1200
41     H41     2.1628    1.0167   -1.1079 H        1 ZINC000000403010    0.1400
42     H42     2.5740   -0.5034   -0.2781 H        1 ZINC000000403010    0.1300
43     H43     3.1369   -2.4418   -1.7314 H        1 ZINC000000403010    0.3800
44     H44     4.8649   -1.8440   -1.2178 H        1 ZINC000000403010    0.0900
45     H45     7.2287   -1.1795   -1.1256 H        1 ZINC000000403010    0.1100
46     H46     4.6069    3.1510   -4.2898 H        1 ZINC000000403010    0.3900
47     H47     5.8240    4.2371   -4.6920 H        1 ZINC000000403010    0.3900
48     H48     3.9403    1.6265   -3.5145 H        1 ZINC000000403010    0.1000
@<TRIPOS>BOND
1     1     2     1
2     1     29    1
3     1     30    1
4     1     31    1
5     2     3     1
6     2     4     1
7     2     12    1
8     4     5     1
9     4     32    1
10    4     33    1
11    5     6     1
12    5     34    1
13    5     35    1
14    6     11    ar
15    6     7     ar
16    7     8     ar
17    7     36    1
18    8     9     ar
19    8     37    1
20    9     10    ar
21    9     38    1
22    10    11    ar
23    10    39    1
24    11    40    1
25    12    13    1
26    12    14    1
27    12    15    1
28    15    16    1
29    15    41    1
30    15    42    1
31    16    17    1
32    16    18    1
33    16    19    1
34    18    43    1
35    19    28    ar
36    19    20    ar
37    20    21    ar
38    20    44    1
39    21    22    ar
40    21    45    1
41    22    23    1
42    22    24    ar
43    24    25    1
44    24    28    ar
45    25    26    am
46    25    27    2
47    26    46    1
48    26    47    1
49    28    48    1
@<TRIPOS>SUBSTRUCTURE
1   ZINC000000403010 1     RESIDUE    1   A     ZIN   1
