@<TRIPOS>MOLECULE
ZINC000011680067
52    55    1     0     0
SMALL
USER_CHARGES
@<TRIPOS>ATOM
1      C1     -0.1139   -1.0466    0.0483 C.1      1 ZINC000011680067   -0.1800
2      C2     -0.0794    0.1262    0.0077 C.1      1 ZINC000011680067   -0.2100
3      C3     -0.0360    1.5966   -0.0432 C.3      1 ZINC000011680067    0.2500
4      O4     -0.7534    2.1502    1.0618 O.3      1 ZINC000011680067   -0.5300
5      C5     -0.6314    2.1041   -1.3789 C.3      1 ZINC000011680067   -0.1400
6      C6      0.5267    2.8068   -2.1363 C.3      1 ZINC000011680067   -0.1100
7      C7      1.7794    2.1547   -1.5377 C.3      1 ZINC000011680067   -0.0800
8      H8      1.9172    1.1528   -1.9442 H        1 ZINC000011680067    0.0800
9      C9      3.0564    2.9588   -1.6737 C.3      1 ZINC000011680067   -0.0800
10     H10     2.9432    3.9150   -1.1628 H        1 ZINC000011680067    0.0900
11     C11     3.4053    3.1996   -3.1427 C.3      1 ZINC000011680067   -0.1100
12     C12     4.6441    4.0983   -3.2126 C.3      1 ZINC000011680067   -0.1000
13     C13     5.7612    3.4729   -2.3976 C.2      1 ZINC000011680067   -0.0300
14     C14     6.9667    3.3938   -2.9607 C.2      1 ZINC000011680067   -0.2400
15     C15     8.0899    2.8121   -2.2187 C.2      1 ZINC000011680067    0.3900
16     O16     9.0722    2.3787   -2.7839 O.2      1 ZINC000011680067   -0.4600
17     C17     7.9599    2.7809   -0.7085 C.3      1 ZINC000011680067   -0.1700
18     C18     6.5905    2.1872   -0.3805 C.3      1 ZINC000011680067   -0.1400
19     C19     5.4651    2.9895   -1.0090 C.3      1 ZINC000011680067   -0.0600
20     H20     5.2828    3.8653   -0.3862 H        1 ZINC000011680067    0.0900
21     C21     4.1858    2.1507   -1.0135 C.3      1 ZINC000011680067   -0.0400
22     H22     4.3527    1.2431   -1.5935 H        1 ZINC000011680067    0.0900
23     C23     3.8007    1.7774    0.3951 C.2      1 ZINC000011680067   -0.1100
24     C24     4.6479    1.9487    1.3794 C.2      1 ZINC000011680067   -0.2100
25     C25     2.4183    1.2001    0.6635 C.3      1 ZINC000011680067   -0.0700
26     C26     1.4114    2.0833   -0.0305 C.3      1 ZINC000011680067   -0.0300
27     C27     1.4916    3.5046    0.5302 C.3      1 ZINC000011680067   -0.1000
28     C28     1.3438    3.4615    2.0524 C.3      1 ZINC000011680067   -0.1600
29     H29    -0.1448   -2.0956    0.0846 H        1 ZINC000011680067    0.2200
30     H30    -1.6845    1.8911    1.0958 H        1 ZINC000011680067    0.3700
31     H31    -1.0060    1.2644   -1.9643 H        1 ZINC000011680067    0.0700
32     H32    -1.4358    2.8134   -1.1843 H        1 ZINC000011680067    0.0800
33     H33     0.4632    2.6087   -3.2063 H        1 ZINC000011680067    0.0700
34     H34     0.5199    3.8791   -1.9410 H        1 ZINC000011680067    0.0800
35     H35     3.6166    2.2473   -3.6291 H        1 ZINC000011680067    0.0700
36     H36     2.5693    3.6899   -3.6414 H        1 ZINC000011680067    0.0700
37     H37     4.9627    4.1992   -4.2501 H        1 ZINC000011680067    0.0800
38     H38     4.4041    5.0813   -2.8073 H        1 ZINC000011680067    0.0800
39     H39     7.1166    3.7588   -3.9660 H        1 ZINC000011680067    0.1300
40     H40     8.7458    2.1578   -0.2816 H        1 ZINC000011680067    0.0900
41     H41     8.0303    3.7928   -0.3095 H        1 ZINC000011680067    0.1000
42     H42     6.5483    1.1637   -0.7531 H        1 ZINC000011680067    0.0700
43     H43     6.4578    2.1760    0.7013 H        1 ZINC000011680067    0.1100
44     H44     5.3964    2.7249    1.3188 H        1 ZINC000011680067    0.1200
45     H45     4.5980    1.3136    2.2515 H        1 ZINC000011680067    0.1000
46     H46     2.3434    0.1981    0.2411 H        1 ZINC000011680067    0.0700
47     H47     2.2279    1.1698    1.7363 H        1 ZINC000011680067    0.0800
48     H48     2.4550    3.9436    0.2710 H        1 ZINC000011680067    0.0700
49     H49     0.6906    4.1089    0.1043 H        1 ZINC000011680067    0.0600
50     H50     1.3115    4.4785    2.4433 H        1 ZINC000011680067    0.0400
51     H51     0.4214    2.9425    2.3133 H        1 ZINC000011680067    0.0800
52     H52     2.1930    2.9327    2.4851 H        1 ZINC000011680067    0.0500
@<TRIPOS>BOND
1     1     2     3
2     1     29    1
3     2     3     1
4     3     26    1
5     3     4     1
6     3     5     1
7     4     30    1
8     5     6     1
9     5     31    1
10    5     32    1
11    6     7     1
12    6     33    1
13    6     34    1
14    7     8     1
15    7     26    1
16    7     9     1
17    9     10    1
18    9     21    1
19    9     11    1
20    11    12    1
21    11    35    1
22    11    36    1
23    12    13    1
24    12    37    1
25    12    38    1
26    13    19    1
27    13    14    2
28    14    15    1
29    14    39    1
30    15    16    2
31    15    17    1
32    17    18    1
33    17    40    1
34    17    41    1
35    18    19    1
36    18    42    1
37    18    43    1
38    19    20    1
39    19    21    1
40    21    22    1
41    21    23    1
42    23    24    2
43    23    25    1
44    24    44    1
45    24    45    1
46    25    26    1
47    25    46    1
48    25    47    1
49    26    27    1
50    27    28    1
51    27    48    1
52    27    49    1
53    28    50    1
54    28    51    1
55    28    52    1
@<TRIPOS>SUBSTRUCTURE
1   ZINC000011680067 1     RESIDUE    1   A     ZIN   1
