@<TRIPOS>MOLECULE
ZINC000253476025
54    56    1     0     0
SMALL
USER_CHARGES
@<TRIPOS>ATOM
1      C1     -0.0181    1.5251    0.0479 C.3      1 ZINC000253476025   -0.1800
2      C2      0.0021   -0.0041    0.0020 C.3      1 ZINC000253476025    0.0100
3      C3      0.7530   -0.5410    1.2221 C.3      1 ZINC000253476025   -0.1800
4      N4     -1.3761   -0.5125    0.0124 N.4      1 ZINC000253476025   -0.2700
5      C5     -2.0721   -0.0941    1.2365 C.3      1 ZINC000253476025   -0.0500
6      C6     -2.1126   -0.0538   -1.1953 C.3      1 ZINC000253476025    0.0400
7      H7     -2.4437    0.9810   -1.1083 H        1 ZINC000253476025    0.1400
8      C8     -3.2983   -1.0390   -1.3142 C.3      1 ZINC000253476025   -0.1300
9      C9     -2.8199   -2.3210   -0.6014 C.3      1 ZINC000253476025   -0.1400
10     C10    -1.3886   -1.9940   -0.1167 C.3      1 ZINC000253476025    0.0300
11     H11    -1.1477   -2.4920    0.8225 H        1 ZINC000253476025    0.1500
12     C12    -0.4127   -2.3756   -1.2413 C.3      1 ZINC000253476025   -0.1400
13     C13    -0.9348   -1.8083   -2.5644 C.3      1 ZINC000253476025    0.0700
14     H14    -0.1987   -1.9827   -3.3492 H        1 ZINC000253476025    0.1100
15     O15    -2.1799   -2.4679   -2.9149 O.3      1 ZINC000253476025   -0.3200
16     C16    -2.4581   -2.5896   -4.2225 C.2      1 ZINC000253476025    0.4600
17     O17    -1.6866   -2.1592   -5.0468 O.2      1 ZINC000253476025   -0.4800
18     C18    -3.7325   -3.2630   -4.6623 C.3      1 ZINC000253476025   -0.0300
19     H19    -4.5878   -2.7197   -4.2605 H        1 ZINC000253476025    0.1200
20     C20    -3.7536   -4.7025   -4.1444 C.3      1 ZINC000253476025    0.0900
21     O21    -3.8038   -4.6943   -2.7163 O.3      1 ZINC000253476025   -0.5700
22     C22    -3.8035   -3.2696   -6.1676 C.ar     1 ZINC000253476025   -0.0900
23     C23    -2.8228   -3.9084   -6.9030 C.ar     1 ZINC000253476025   -0.0900
24     C24    -2.8879   -3.9145   -8.2838 C.ar     1 ZINC000253476025   -0.1200
25     C25    -3.9341   -3.2821   -8.9292 C.ar     1 ZINC000253476025   -0.1000
26     C26    -4.9153   -2.6440   -8.1937 C.ar     1 ZINC000253476025   -0.1200
27     C27    -4.8524   -2.6416   -6.8128 C.ar     1 ZINC000253476025   -0.1000
28     C28    -1.1847   -0.2652   -2.4024 C.3      1 ZINC000253476025   -0.1600
29     H29     1.0044    1.9024    0.0401 H        1 ZINC000253476025    0.1000
30     H30    -0.5531    1.9076   -0.8214 H        1 ZINC000253476025    0.0800
31     H31    -0.5202    1.8547    0.9575 H        1 ZINC000253476025    0.0800
32     H32     0.5041   -0.3337   -0.9076 H        1 ZINC000253476025    0.1400
33     H33     0.2510   -0.2114    2.1318 H        1 ZINC000253476025    0.0800
34     H34     0.7674   -1.6304    1.1895 H        1 ZINC000253476025    0.0800
35     H35     1.7756   -0.1637    1.2144 H        1 ZINC000253476025    0.1000
36     H36    -2.0845    0.9943    1.2935 H        1 ZINC000253476025    0.1200
37     H37    -3.0956   -0.4686    1.2186 H        1 ZINC000253476025    0.1200
38     H38    -1.5528   -0.4976    2.1058 H        1 ZINC000253476025    0.1200
39     H39    -4.1792   -0.6342   -0.8160 H        1 ZINC000253476025    0.0900
40     H40    -3.5157   -1.2462   -2.3620 H        1 ZINC000253476025    0.1200
41     H41    -3.4656   -2.5465    0.2473 H        1 ZINC000253476025    0.0900
42     H42    -2.8021   -3.1586   -1.2987 H        1 ZINC000253476025    0.1500
43     H43     0.5713   -1.9582   -1.0280 H        1 ZINC000253476025    0.1100
44     H44    -0.3433   -3.4612   -1.3116 H        1 ZINC000253476025    0.1200
45     H45    -4.6315   -5.2166   -4.5358 H        1 ZINC000253476025    0.0700
46     H46    -2.8526   -5.2202   -4.4733 H        1 ZINC000253476025    0.0600
47     H47    -3.8196   -5.5754   -2.3182 H        1 ZINC000253476025    0.3900
48     H48    -2.0054   -4.4025   -6.3988 H        1 ZINC000253476025    0.1200
49     H49    -2.1213   -4.4130   -8.8584 H        1 ZINC000253476025    0.1300
50     H50    -3.9846   -3.2862  -10.0080 H        1 ZINC000253476025    0.1300
51     H51    -5.7325   -2.1496   -8.6979 H        1 ZINC000253476025    0.1300
52     H52    -5.6191   -2.1431   -6.2382 H        1 ZINC000253476025    0.1200
53     H53    -1.6584    0.1245   -3.3035 H        1 ZINC000253476025    0.1100
54     H54    -0.2347    0.2432   -2.2382 H        1 ZINC000253476025    0.1100
@<TRIPOS>BOND
1     1     2     1
2     1     29    1
3     1     30    1
4     1     31    1
5     2     3     1
6     2     4     1
7     2     32    1
8     3     33    1
9     3     34    1
10    3     35    1
11    4     10    1
12    4     5     1
13    4     6     1
14    5     36    1
15    5     37    1
16    5     38    1
17    6     7     1
18    6     28    1
19    6     8     1
20    8     9     1
21    8     39    1
22    8     40    1
23    9     10    1
24    9     41    1
25    9     42    1
26    10    11    1
27    10    12    1
28    12    13    1
29    12    43    1
30    12    44    1
31    13    14    1
32    13    15    1
33    13    28    1
34    15    16    1
35    16    17    2
36    16    18    1
37    18    19    1
38    18    20    1
39    18    22    1
40    20    21    1
41    20    45    1
42    20    46    1
43    21    47    1
44    22    27    ar
45    22    23    ar
46    23    24    ar
47    23    48    1
48    24    25    ar
49    24    49    1
50    25    26    ar
51    25    50    1
52    26    27    ar
53    26    51    1
54    27    52    1
55    28    53    1
56    28    54    1
@<TRIPOS>SUBSTRUCTURE
1   ZINC000253476025 1     RESIDUE    1   A     ZIN   1
