@<TRIPOS>MOLECULE
ZINC000003818808
44   46    0    0    0
SMALL
USER_CHARGES
NO_NAME
@<TRIPOS>ATOM
1 C1       -0.1313     1.3259    -0.0949 C.3    1 <0>      -0.1700
2 C2        0.0143    -0.1940     0.0035 C.3    1 <0>      -0.1100
3 H3        0.4783    -0.5740    -0.9067 H      1 <0>       0.1000
4 C4       -1.3677    -0.8286     0.1746 C.3    1 <0>      -0.1300
5 C5       -1.2213    -2.3522     0.2379 C.3    1 <0>       0.0900
6 N6       -0.2656    -2.6916     1.3011 N.am   1 <0>      -0.6100
7 C7       -0.6017    -3.5610     2.2746 C.2    1 <0>       0.5000
8 O8        0.1961    -3.8329     3.1466 O.2    1 <0>      -0.5200
9 C9       -1.9687    -4.1951     2.2796 C.3    1 <0>      -0.0500
10 C10      -2.0866    -5.0981     3.4361 C.1    1 <0>       0.1800
11 N11      -2.1775    -5.7950     4.3286 N.1    1 <0>      -0.3600
12 C12       1.0635    -2.0656     1.2825 C.3    1 <0>       0.0900
13 C13       0.8912    -0.5453     1.2076 C.3    1 <0>       0.1600
14 H14       1.8675    -0.0735     1.0963 H      1 <0>       0.1100
15 N15       0.2529    -0.0644     2.4355 N.pl3  1 <0>      -0.6600
16 C16       0.0580     1.3723     2.6455 C.3    1 <0>       0.0900
17 C17      -0.1658    -0.9670     3.3965 C.ar   1 <0>       0.5200
18 C18       0.7365    -1.4865     4.3369 C.ar   1 <0>      -0.1500
19 C19       2.1624    -1.3147     4.6090 C.2    1 <0>      -0.1500
20 C20       2.4537    -2.0961     5.6617 C.2    1 <0>       0.1000
21 N21       1.3247    -2.7514     6.0806 N.pl3  1 <0>      -0.5400
22 C22       0.2614    -2.4018     5.2944 C.ar   1 <0>       0.3900
23 N23      -1.0273    -2.7378     5.2693 N.ar   1 <0>      -0.4400
24 C24      -1.8379    -2.2249     4.3690 C.ar   1 <0>       0.3400
25 N25      -1.4349    -1.3600     3.4557 N.ar   1 <0>      -0.5400
26 H26      -2.0732    -1.0114     2.8139 H      1 <0>       0.4400
27 H27       0.8550     1.7885    -0.0590 H      1 <0>       0.0600
28 H28      -0.6197     1.5840    -1.0345 H      1 <0>       0.0700
29 H29      -0.7330     1.6879     0.7388 H      1 <0>       0.0700
30 H30      -1.8219    -0.4681     1.0975 H      1 <0>       0.0500
31 H31      -1.9993    -0.5587    -0.6718 H      1 <0>       0.1000
32 H32      -2.1887    -2.8034     0.4585 H      1 <0>       0.1000
33 H33      -0.8518    -2.7238    -0.7178 H      1 <0>       0.0900
34 H34      -2.7297    -3.4176     2.3467 H      1 <0>       0.1300
35 H35      -2.1094    -4.7626     1.3597 H      1 <0>       0.1500
36 H36       1.6036    -2.3278     2.1923 H      1 <0>       0.1100
37 H37       1.6193    -2.4139     0.4119 H      1 <0>       0.1000
38 H38      -0.9425     1.6549     2.3180 H      1 <0>       0.0600
39 H39       0.1724     1.6034     3.7046 H      1 <0>       0.0700
40 H40       0.7990     1.9274     2.0703 H      1 <0>       0.1000
41 H41       2.8495    -0.6813     4.0676 H      1 <0>       0.1800
42 H42       3.4311    -2.1941     6.1107 H      1 <0>       0.2100
43 H43       1.2856    -3.3721     6.8250 H      1 <0>       0.4400
44 H44      -2.8765    -2.5210     4.3791 H      1 <0>       0.2400
@<TRIPOS>BOND
1    1    2 1
2    1   27 1
3    1   28 1
4    1   29 1
5    2    3 1
6    2   13 1
7    2    4 1
8    4    5 1
9    4   30 1
10    4   31 1
11    5    6 1
12    5   32 1
13    5   33 1
14    6    7 am
15    6   12 1
16    7    8 2
17    7    9 1
18    9   10 1
19    9   34 1
20    9   35 1
21   10   11 3
22   12   13 1
23   12   36 1
24   12   37 1
25   13   14 1
26   13   15 1
27   15   16 1
28   15   17 1
29   16   38 1
30   16   39 1
31   16   40 1
32   17   25 ar
33   17   18 ar
34   18   22 ar
35   18   19 1
36   19   20 2
37   19   41 1
38   20   21 1
39   20   42 1
40   21   22 1
41   21   43 1
42   22   23 ar
43   23   24 ar
44   24   25 ar
45   24   44 1
46   25   26 1
