@<TRIPOS>MOLECULE
ZINC000001530776
38    39    1     0     0
SMALL
USER_CHARGES
@<TRIPOS>ATOM
1      C1     -0.0184    1.5028    0.0103 C.3      1 ZINC000001530776   -0.2100
2      C2      0.0021   -0.0041    0.0020 C.2      1 ZINC000001530776    0.3500
3      O3      0.0202   -0.6134    1.0444 O.2      1 ZINC000001530776   -0.4600
4      C4     -0.0002   -0.7505   -1.3071 C.3      1 ZINC000001530776   -0.1700
5      C5      0.0229   -2.2561   -1.0359 C.3      1 ZINC000001530776   -0.1100
6      C6      0.0206   -3.0139   -2.3650 C.3      1 ZINC000001530776   -0.1300
7      C7      0.0437   -4.5194   -2.0937 C.3      1 ZINC000001530776    0.1100
8      N8      0.0415   -5.2450   -3.3664 N.am     1 ZINC000001530776   -0.5500
9      C9     -1.1337   -5.5854   -3.9353 C.2      1 ZINC000001530776    0.6000
10     O10    -2.1864   -5.2924   -3.3972 O.2      1 ZINC000001530776   -0.5100
11     C11    -1.1290   -6.2844   -5.1616 C.2      1 ZINC000001530776   -0.1600
12     C12     0.0864   -6.6052   -5.7531 C.2      1 ZINC000001530776    0.3200
13     N13    -0.1849   -7.2556   -6.8875 N.2      1 ZINC000001530776   -0.5000
14     C14    -1.4805   -7.3600   -7.0398 C.2      1 ZINC000001530776    0.2700
15     N15    -2.1087   -6.7761   -6.0007 N.pl3    1 ZINC000001530776   -0.4100
16     C16    -3.5567   -6.6819   -5.7990 C.3      1 ZINC000001530776    0.0700
17     N17     1.2590   -6.2277   -5.1190 N.am     1 ZINC000001530776   -0.5100
18     C18     2.5540   -6.5532   -5.7218 C.3      1 ZINC000001530776    0.0900
19     C19     1.2102   -5.5570   -3.9526 C.2      1 ZINC000001530776    0.7100
20     O20     2.2498   -5.2341   -3.4107 O.2      1 ZINC000001530776   -0.5300
21     H21     1.0042    1.8801    0.0026 H        1 ZINC000001530776    0.1000
22     H22    -0.5455    1.8639   -0.8728 H        1 ZINC000001530776    0.0800
23     H23    -0.5286    1.8543    0.9071 H        1 ZINC000001530776    0.0800
24     H24    -0.8991   -0.4962   -1.8688 H        1 ZINC000001530776    0.1000
25     H25     0.8807   -0.4720   -1.8857 H        1 ZINC000001530776    0.1000
26     H26     0.9218   -2.5103   -0.4742 H        1 ZINC000001530776    0.0700
27     H27    -0.8579   -2.5345   -0.4573 H        1 ZINC000001530776    0.0700
28     H28    -0.8783   -2.7596   -2.9267 H        1 ZINC000001530776    0.0700
29     H29     0.9015   -2.7354   -2.9435 H        1 ZINC000001530776    0.0700
30     H30     0.9426   -4.7737   -1.5321 H        1 ZINC000001530776    0.1000
31     H31    -0.8371   -4.7979   -1.5152 H        1 ZINC000001530776    0.1000
32     H32    -1.9718   -7.8409   -7.8727 H        1 ZINC000001530776    0.2300
33     H33    -3.9030   -7.5512   -5.2401 H        1 ZINC000001530776    0.0900
34     H34    -3.7874   -5.7750   -5.2400 H        1 ZINC000001530776    0.1000
35     H35    -4.0570   -6.6493   -6.7669 H        1 ZINC000001530776    0.1000
36     H36     2.8628   -5.7411   -6.3800 H        1 ZINC000001530776    0.0700
37     H37     3.2974   -6.6866   -4.9359 H        1 ZINC000001530776    0.0900
38     H38     2.4653   -7.4742   -6.2981 H        1 ZINC000001530776    0.0900
@<TRIPOS>BOND
1     1     2     1
2     1     21    1
3     1     22    1
4     1     23    1
5     2     3     2
6     2     4     1
7     4     5     1
8     4     24    1
9     4     25    1
10    5     6     1
11    5     26    1
12    5     27    1
13    6     7     1
14    6     28    1
15    6     29    1
16    7     8     1
17    7     30    1
18    7     31    1
19    8     19    am
20    8     9     am
21    9     10    2
22    9     11    1
23    11    15    1
24    11    12    2
25    12    13    1
26    12    17    1
27    13    14    2
28    14    15    1
29    14    32    1
30    15    16    1
31    16    33    1
32    16    34    1
33    16    35    1
34    17    18    1
35    17    19    am
36    18    36    1
37    18    37    1
38    18    38    1
39    19    20    2
@<TRIPOS>SUBSTRUCTURE
1   ZINC000001530776 1     RESIDUE    1   A     ZIN   1
