@<TRIPOS>MOLECULE
ZINC000003993855
48    53    1     0     0
SMALL
USER_CHARGES
@<TRIPOS>ATOM
1      C1      0.3822    1.4697   -0.0746 C.3      1 ZINC000003993855    0.0800
2      N2      0.3005    0.0071   -0.0629 N.am     1 ZINC000003993855   -0.6100
3      C3      0.2921   -0.6884   -1.3391 C.3      1 ZINC000003993855    0.1000
4      C4      0.2803   -2.1728   -1.1696 C.2      1 ZINC000003993855    0.5100
5      O5      0.2980   -2.8565   -2.1712 O.2      1 ZINC000003993855   -0.5000
6      N6      0.2520   -2.7971    0.0096 N.am     1 ZINC000003993855   -0.5900
7      C7      0.1477   -2.0907    1.2857 C.3      1 ZINC000003993855    0.1300
8      H8      0.9641   -2.4108    1.9332 H        1 ZINC000003993855    0.1200
9      C9     -1.1860   -2.4523    1.9545 C.3      1 ZINC000003993855   -0.0400
10     C10    -1.3869   -3.9434    1.8642 C.2      1 ZINC000003993855   -0.1500
11     C11    -0.7231   -4.7584    1.0163 C.2      1 ZINC000003993855    0.0600
12     N12    -1.1436   -6.0508    1.1866 N.pl3    1 ZINC000003993855   -0.5700
13     C13    -2.0989   -6.1006    2.1607 C.ar     1 ZINC000003993855    0.1100
14     C14    -2.8305   -7.1569    2.6988 C.ar     1 ZINC000003993855   -0.1300
15     C15    -3.7384   -6.8465    3.6969 C.ar     1 ZINC000003993855   -0.0900
16     C16    -3.9232   -5.5514    4.1513 C.ar     1 ZINC000003993855   -0.1500
17     C17    -3.2166   -4.4907    3.6394 C.ar     1 ZINC000003993855   -0.0600
18     C18    -2.2926   -4.7756    2.6300 C.ar     1 ZINC000003993855   -0.1000
19     C19     0.3263   -4.2734    0.0420 C.3      1 ZINC000003993855    0.2600
20     H20     1.3152   -4.5872    0.3762 H        1 ZINC000003993855    0.1100
21     C21     0.0486   -4.8318   -1.3299 C.ar     1 ZINC000003993855   -0.0400
22     C22    -1.2110   -4.7040   -1.8843 C.ar     1 ZINC000003993855   -0.0800
23     C23    -1.4707   -5.2147   -3.1428 C.ar     1 ZINC000003993855   -0.0900
24     C24    -0.4682   -5.8566   -3.8509 C.ar     1 ZINC000003993855    0.0300
25     O25    -0.4624   -6.4390   -5.0854 O.3      1 ZINC000003993855   -0.3100
26     C26     0.9263   -6.5636   -5.4451 C.3      1 ZINC000003993855    0.2100
27     O27     1.6021   -6.6484   -4.1765 O.3      1 ZINC000003993855   -0.3100
28     C28     0.8013   -5.9853   -3.2920 C.ar     1 ZINC000003993855    0.0400
29     C29     1.0560   -5.4659   -2.0336 C.ar     1 ZINC000003993855   -0.0900
30     C30     0.2438   -0.6087    1.1163 C.2      1 ZINC000003993855    0.5200
31     O31     0.2630    0.0770    2.1165 O.2      1 ZINC000003993855   -0.5200
32     H32     1.4284    1.7754   -0.0579 H        1 ZINC000003993855    0.0600
33     H33    -0.0940    1.8531   -0.9770 H        1 ZINC000003993855    0.0800
34     H34    -0.1270    1.8690    0.8026 H        1 ZINC000003993855    0.0900
35     H35    -0.5934   -0.3889   -1.8998 H        1 ZINC000003993855    0.1100
36     H36     1.1799   -0.4035   -1.9037 H        1 ZINC000003993855    0.1100
37     H37    -1.1636   -2.1495    3.0013 H        1 ZINC000003993855    0.1000
38     H38    -2.0017   -1.9421    1.4421 H        1 ZINC000003993855    0.0800
39     H39    -0.8124   -6.8155    0.6902 H        1 ZINC000003993855    0.4200
40     H40    -2.6958   -8.1711    2.3531 H        1 ZINC000003993855    0.1300
41     H41    -4.3228   -7.6415    4.1359 H        1 ZINC000003993855    0.1200
42     H42    -4.6461   -5.3696    4.9328 H        1 ZINC000003993855    0.1200
43     H43    -3.3678   -3.4839    3.9998 H        1 ZINC000003993855    0.1300
44     H44    -1.9941   -4.2046   -1.3333 H        1 ZINC000003993855    0.1300
45     H45    -2.4559   -5.1134   -3.5737 H        1 ZINC000003993855    0.1300
46     H46     1.0910   -7.4698   -6.0281 H        1 ZINC000003993855    0.1300
47     H47     1.2589   -5.6853   -5.9984 H        1 ZINC000003993855    0.0800
48     H48     2.0409   -5.5591   -1.6003 H        1 ZINC000003993855    0.1300
@<TRIPOS>BOND
1     1     2     1
2     1     32    1
3     1     33    1
4     1     34    1
5     2     30    am
6     2     3     1
7     3     4     1
8     3     35    1
9     3     36    1
10    4     5     2
11    4     6     am
12    6     19    1
13    6     7     1
14    7     8     1
15    7     9     1
16    7     30    1
17    9     10    1
18    9     37    1
19    9     38    1
20    10    18    1
21    10    11    2
22    11    12    1
23    11    19    1
24    12    13    1
25    12    39    1
26    13    18    ar
27    13    14    ar
28    14    15    ar
29    14    40    1
30    15    16    ar
31    15    41    1
32    16    17    ar
33    16    42    1
34    17    18    ar
35    17    43    1
36    19    20    1
37    19    21    1
38    21    29    ar
39    21    22    ar
40    22    23    ar
41    22    44    1
42    23    24    ar
43    23    45    1
44    24    28    ar
45    24    25    1
46    25    26    1
47    26    27    1
48    26    46    1
49    26    47    1
50    27    28    1
51    28    29    ar
52    29    48    1
53    30    31    2
@<TRIPOS>SUBSTRUCTURE
1   ZINC000003993855 1     RESIDUE    1   A     ZIN   1
