@<TRIPOS>MOLECULE
ZINC000000001850
48    50    1     0     0
SMALL
USER_CHARGES
@<TRIPOS>ATOM
1      C1     -0.0178    1.4648    0.0101 C.3      1 ZINC000000001850   -0.0500
2      N2      0.0021   -0.0041    0.0020 N.4      1 ZINC000000001850   -0.3900
3      H3      0.4744   -0.3295   -0.8281 H        1 ZINC000000001850    0.4300
4      C4      0.7126   -0.4907    1.1921 C.3      1 ZINC000000001850   -0.0500
5      C5     -1.3761   -0.5125    0.0124 C.3      1 ZINC000000001850   -0.0100
6      C6     -1.3584   -2.0365   -0.1216 C.3      1 ZINC000000001850   -0.1200
7      C7     -2.7722   -2.5582   -0.1109 C.2      1 ZINC000000001850   -0.1800
8      C8     -3.2091   -3.3282   -1.1149 C.2      1 ZINC000000001850    0.0200
9      C9     -4.6029   -3.8304   -1.0970 C.ar     1 ZINC000000001850   -0.0500
10     C10    -5.5912   -2.9161   -0.7034 C.ar     1 ZINC000000001850   -0.1100
11     C11    -6.9146   -3.2896   -0.6525 C.ar     1 ZINC000000001850   -0.1200
12     C12    -7.2695   -4.5822   -0.9943 C.ar     1 ZINC000000001850   -0.1100
13     C13    -6.3029   -5.4830   -1.3824 C.ar     1 ZINC000000001850   -0.1200
14     C14    -4.9562   -5.1228   -1.4406 C.ar     1 ZINC000000001850   -0.0900
15     C15    -4.0222   -6.2160   -1.8876 C.3      1 ZINC000000001850    0.1100
16     O16    -2.6571   -5.9419   -1.7007 O.3      1 ZINC000000001850   -0.3200
17     C17    -2.0316   -5.0101   -2.4478 C.ar     1 ZINC000000001850    0.0900
18     C18    -1.1326   -5.3773   -3.4392 C.ar     1 ZINC000000001850   -0.1200
19     C19    -0.5242   -4.4001   -4.2059 C.ar     1 ZINC000000001850   -0.0900
20     C20    -0.8032   -3.0614   -3.9958 C.ar     1 ZINC000000001850   -0.0200
21     C21    -0.1391   -2.0117   -4.8492 C.3      1 ZINC000000001850   -0.1600
22     C22    -0.9896   -1.7394   -6.0631 C.2      1 ZINC000000001850    0.4900
23     O23    -2.0379   -2.3418   -6.2206 O.co2    1 ZINC000000001850   -0.6800
24     O24    -0.6295   -0.9167   -6.8877 O.co2    1 ZINC000000001850   -0.6900
25     C25    -1.6911   -2.6845   -3.0040 C.ar     1 ZINC000000001850   -0.0900
26     C26    -2.2945   -3.6611   -2.2308 C.ar     1 ZINC000000001850   -0.0900
27     H27     1.0047    1.8421    0.0024 H        1 ZINC000000001850    0.1200
28     H28    -0.5450    1.8259   -0.8730 H        1 ZINC000000001850    0.1200
29     H29    -0.5280    1.8163    0.9069 H        1 ZINC000000001850    0.1200
30     H30     0.2024   -0.1392    2.0889 H        1 ZINC000000001850    0.1200
31     H31     0.7274   -1.5806    1.1861 H        1 ZINC000000001850    0.1200
32     H32     1.7352   -0.1134    1.1844 H        1 ZINC000000001850    0.1200
33     H33    -1.8584   -0.2358    0.9500 H        1 ZINC000000001850    0.1300
34     H34    -1.9290   -0.0808   -0.8218 H        1 ZINC000000001850    0.1300
35     H35    -0.8762   -2.3132   -1.0592 H        1 ZINC000000001850    0.1000
36     H36    -0.8055   -2.4683    0.7126 H        1 ZINC000000001850    0.0900
37     H37    -3.4330   -2.3107    0.7068 H        1 ZINC000000001850    0.1300
38     H38    -5.3102   -1.9078   -0.4372 H        1 ZINC000000001850    0.1200
39     H39    -7.6696   -2.5799   -0.3480 H        1 ZINC000000001850    0.1300
40     H40    -8.3054   -4.8853   -0.9563 H        1 ZINC000000001850    0.1300
41     H41    -6.5931   -6.4892   -1.6463 H        1 ZINC000000001850    0.1300
42     H42    -4.2687   -7.1248   -1.3385 H        1 ZINC000000001850    0.1200
43     H43    -4.1935   -6.4026   -2.9477 H        1 ZINC000000001850    0.0700
44     H44    -0.9092   -6.4199   -3.6107 H        1 ZINC000000001850    0.1300
45     H45     0.1766   -4.6852   -4.9767 H        1 ZINC000000001850    0.1300
46     H46    -0.0244   -1.0939   -4.2727 H        1 ZINC000000001850    0.0600
47     H47     0.8416   -2.3674   -5.1651 H        1 ZINC000000001850    0.0700
48     H48    -1.9129   -1.6409   -2.8359 H        1 ZINC000000001850    0.1200
@<TRIPOS>BOND
1     1     2     1
2     1     27    1
3     1     28    1
4     1     29    1
5     2     3     1
6     2     4     1
7     2     5     1
8     4     30    1
9     4     31    1
10    4     32    1
11    5     6     1
12    5     33    1
13    5     34    1
14    6     7     1
15    6     35    1
16    6     36    1
17    7     8     2
18    7     37    1
19    8     26    1
20    8     9     1
21    9     14    ar
22    9     10    ar
23    10    11    ar
24    10    38    1
25    11    12    ar
26    11    39    1
27    12    13    ar
28    12    40    1
29    13    14    ar
30    13    41    1
31    14    15    1
32    15    16    1
33    15    42    1
34    15    43    1
35    16    17    1
36    17    26    ar
37    17    18    ar
38    18    19    ar
39    18    44    1
40    19    20    ar
41    19    45    1
42    20    21    1
43    20    25    ar
44    21    22    1
45    21    46    1
46    21    47    1
47    22    23    ar
48    22    24    ar
49    25    26    ar
50    25    48    1
@<TRIPOS>SUBSTRUCTURE
1   ZINC000000001850 1     RESIDUE    1   A     ZIN   1
