@<TRIPOS>MOLECULE
ZINC000000074836
28   28    0    0    0
SMALL
USER_CHARGES
NO_NAME
@<TRIPOS>ATOM
1 C1       -0.0178     1.4648     0.0101 C.3    1 <0>      -0.0500
2 N2        0.0021    -0.0041     0.0020 N.4    1 <0>      -0.5000
3 H3        0.4744    -0.3295    -0.8281 H      1 <0>       0.4300
4 H4        0.4901    -0.3383     0.8195 H      1 <0>       0.4300
5 C5       -1.3761    -0.5125     0.0124 C.3    1 <0>      -0.0100
6 H6       -1.9129    -0.0898     0.8617 H      1 <0>       0.1500
7 C7       -2.0780    -0.1101    -1.2861 C.3    1 <0>      -0.2000
8 C8       -1.3560    -2.0379     0.1298 C.3    1 <0>       0.1400
9 H9       -0.7794    -2.3272     1.0084 H      1 <0>       0.1300
10 O10      -0.7554    -2.5978    -1.0397 O.3    1 <0>      -0.5500
11 C11      -2.7670    -2.5500     0.2640 C.ar   1 <0>      -0.1400
12 C12      -3.5275    -2.7847    -0.8662 C.ar   1 <0>      -0.1100
13 C13      -4.8218    -3.2544    -0.7430 C.ar   1 <0>      -0.1100
14 C14      -5.3553    -3.4898     0.5103 C.ar   1 <0>      -0.1000
15 C15      -4.5945    -3.2560     1.6405 C.ar   1 <0>      -0.1100
16 C16      -3.2987    -2.7903     1.5172 C.ar   1 <0>      -0.1000
17 H17       1.0047     1.8421     0.0024 H      1 <0>       0.1300
18 H18      -0.5450     1.8259    -0.8730 H      1 <0>       0.1200
19 H19      -0.5280     1.8163     0.9069 H      1 <0>       0.1200
20 H20      -1.5412    -0.5328    -2.1354 H      1 <0>       0.0800
21 H21      -3.1006    -0.4874    -1.2784 H      1 <0>       0.1100
22 H22      -2.0923     0.9766    -1.3697 H      1 <0>       0.0900
23 H23      -1.2170    -2.3808    -1.8613 H      1 <0>       0.3900
24 H24      -3.1107    -2.6008    -1.8453 H      1 <0>       0.1200
25 H25      -5.4162    -3.4372    -1.6260 H      1 <0>       0.1300
26 H26      -6.3667    -3.8562     0.6065 H      1 <0>       0.1300
27 H27      -5.0114    -3.4396     2.6197 H      1 <0>       0.1300
28 H28      -2.7043    -2.6076     2.4002 H      1 <0>       0.1300
@<TRIPOS>BOND
1    1    2 1
2    1   17 1
3    1   18 1
4    1   19 1
5    2    3 1
6    2    4 1
7    2    5 1
8    5    6 1
9    5    7 1
10    5    8 1
11    7   20 1
12    7   21 1
13    7   22 1
14    8    9 1
15    8   10 1
16    8   11 1
17   10   23 1
18   11   16 ar
19   11   12 ar
20   12   13 ar
21   12   24 1
22   13   14 ar
23   13   25 1
24   14   15 ar
25   14   26 1
26   15   16 ar
27   15   27 1
28   16   28 1
