@<TRIPOS>MOLECULE
ZINC000000004321
22    23    1     0     0
SMALL
USER_CHARGES
@<TRIPOS>ATOM
1      N1     -0.0204    1.6518    0.0111 N.am     1 ZINC000000004321   -1.2500
2      S2      0.0021   -0.0041    0.0020 S.o2     1 ZINC000000004321    2.6200
3      O3     -0.5865   -0.3693    1.2427 O.2      1 ZINC000000004321   -0.9400
4      O4     -0.6101   -0.3561   -1.2311 O.2      1 ZINC000000004321   -0.9400
5      C5      1.7646   -0.4327   -0.0171 C.3      1 ZINC000000004321   -0.5600
6      C6      1.9168   -1.9320   -0.0266 C.2      1 ZINC000000004321    0.1200
7      N7      1.9988   -2.7022    1.0142 N.2      1 ZINC000000004321   -0.2600
8      O8      2.1335   -4.0479    0.6032 O.3      1 ZINC000000004321   -0.0700
9      C9      2.1342   -4.1053   -0.7438 C.ar     1 ZINC000000004321    0.0900
10     C10     2.2364   -5.1484   -1.6558 C.ar     1 ZINC000000004321   -0.1200
11     C11     2.2043   -4.8817   -3.0078 C.ar     1 ZINC000000004321   -0.0500
12     C12     2.0707   -3.5796   -3.4679 C.ar     1 ZINC000000004321   -0.1400
13     C13     1.9692   -2.5395   -2.5873 C.ar     1 ZINC000000004321   -0.0300
14     C14     1.9932   -2.7888   -1.2134 C.ar     1 ZINC000000004321   -0.2000
15     H15     0.8130    2.1481    0.0058 H        1 ZINC000000004321    0.4100
16     H16    -0.8669    2.1253    0.0177 H        1 ZINC000000004321    0.4300
17     H17     2.2306   -0.0146   -0.9094 H        1 ZINC000000004321    0.1700
18     H18     2.2476   -0.0241    0.8705 H        1 ZINC000000004321    0.1700
19     H19     2.3409   -6.1650   -1.3066 H        1 ZINC000000004321    0.1400
20     H20     2.2842   -5.6937   -3.7155 H        1 ZINC000000004321    0.1500
21     H21     2.0472   -3.3864   -4.5302 H        1 ZINC000000004321    0.1400
22     H22     1.8662   -1.5285   -2.9526 H        1 ZINC000000004321    0.1400
@<TRIPOS>BOND
1     1     2     am
2     1     15    1
3     1     16    1
4     2     3     2
5     2     4     2
6     2     5     1
7     5     6     1
8     5     17    1
9     5     18    1
10    6     14    1
11    6     7     2
12    7     8     1
13    8     9     1
14    9     14    ar
15    9     10    ar
16    10    11    ar
17    10    19    1
18    11    12    ar
19    11    20    1
20    12    13    ar
21    12    21    1
22    13    14    ar
23    13    22    1
@<TRIPOS>SUBSTRUCTURE
1   ZINC000000004321 1     RESIDUE    1   A     ZIN   1
