@<TRIPOS>MOLECULE
ZINC000095564694
99    103   1     0     0
SMALL
USER_CHARGES
@<TRIPOS>ATOM
1      C1     -0.0157    1.3058    0.0092 C.2      1 ZINC000095564694   -0.1800
2      C2      0.0021   -0.0041    0.0020 C.2      1 ZINC000095564694   -0.1500
3      C3      1.3172   -0.7397   -0.0145 C.3      1 ZINC000095564694    0.0800
4      N4      1.3676   -1.6781    1.1146 N.3      1 ZINC000095564694   -0.5200
5      C5      0.3434   -2.7190    0.9789 C.3      1 ZINC000095564694    0.0600
6      C6      0.3405   -3.6239    2.2177 C.3      1 ZINC000095564694   -0.1000
7      C7      1.7417   -4.2181    2.3733 C.3      1 ZINC000095564694   -0.0200
8      C8      2.1132   -4.9421    1.1014 C.ar     1 ZINC000095564694   -0.1600
9      C9      2.7291   -4.4072   -0.0054 C.ar     1 ZINC000095564694   -0.0300
10     C10     2.9522   -5.2819   -1.0547 C.ar     1 ZINC000095564694   -0.1400
11     C11     2.6100   -6.6185   -0.9335 C.ar     1 ZINC000095564694   -0.1000
12     C12     2.0531   -7.1622    0.2223 C.ar     1 ZINC000095564694    0.0800
13     O13     1.7533   -8.4857    0.3117 O.3      1 ZINC000095564694   -0.4800
14     C14     1.8161   -6.2858    1.2865 C.ar     1 ZINC000095564694    0.1300
15     O15     1.3631   -6.4935    2.5422 O.3      1 ZINC000095564694   -0.2800
16     C16     1.7736   -5.3604    3.3736 C.3      1 ZINC000095564694    0.1100
17     H17     1.0654   -5.1899    4.1845 H        1 ZINC000095564694    0.1300
18     C18     3.1481   -5.6964    3.9159 C.3      1 ZINC000095564694    0.0800
19     H19     3.0251   -6.1649    4.8923 H        1 ZINC000095564694    0.0700
20     O20     3.7556   -6.6471    3.0389 O.3      1 ZINC000095564694   -0.3600
21     C21     4.6668   -7.5366    3.6873 C.3      1 ZINC000095564694    0.0600
22     C22     5.2538   -8.5048    2.6582 C.3      1 ZINC000095564694    0.0700
23     O23     6.0428   -7.7768    1.7151 O.3      1 ZINC000095564694   -0.3700
24     C24     6.6401   -8.5920    0.7048 C.3      1 ZINC000095564694    0.0700
25     C25     7.4566   -7.7121   -0.2438 C.3      1 ZINC000095564694    0.0700
26     O26     8.5506   -7.1309    0.4687 O.3      1 ZINC000095564694   -0.3700
27     C27     9.3812   -6.2859   -0.3302 C.3      1 ZINC000095564694    0.0700
28     C28    10.5131   -5.7219    0.5310 C.3      1 ZINC000095564694    0.0700
29     O29    11.3613   -6.7885    0.9610 O.3      1 ZINC000095564694   -0.3700
30     C30    12.4567   -6.3674    1.7764 C.3      1 ZINC000095564694    0.0600
31     C31    13.2926   -7.5850    2.1760 C.3      1 ZINC000095564694    0.0600
32     O32    13.8876   -8.1578    1.0099 O.3      1 ZINC000095564694   -0.3700
33     C33    14.6939   -9.3076    1.2739 C.3      1 ZINC000095564694    0.0600
34     C34    15.2768   -9.8342   -0.0390 C.3      1 ZINC000095564694    0.0600
35     O35    16.1709   -8.8632   -0.5866 O.3      1 ZINC000095564694   -0.3700
36     C36    16.7733   -9.2583   -1.8207 C.3      1 ZINC000095564694    0.0600
37     C37    17.7055   -8.1488   -2.3115 C.3      1 ZINC000095564694    0.0600
38     O38    18.7897   -7.9967   -1.3932 O.3      1 ZINC000095564694   -0.3700
39     C39    19.7241   -6.9798   -1.7605 C.3      1 ZINC000095564694    0.0600
40     C40    20.8357   -6.9058   -0.7118 C.3      1 ZINC000095564694    0.0600
41     O41    21.5810   -8.1251   -0.7207 O.3      1 ZINC000095564694   -0.3900
42     C42    22.6494   -8.1602    0.2276 C.3      1 ZINC000095564694    0.0300
43     C43     4.0921   -4.5264    4.0673 C.3      1 ZINC000095564694   -0.1300
44     C44     4.1587   -3.6919    2.7888 C.3      1 ZINC000095564694   -0.1400
45     C45     2.7507   -3.0961    2.5378 C.3      1 ZINC000095564694    0.1700
46     O46     2.3768   -2.2810    3.6503 O.3      1 ZINC000095564694   -0.5400
47     C47     2.7165   -2.2394    1.2732 C.3      1 ZINC000095564694    0.0700
48     H48     3.4098   -1.4098    1.4118 H        1 ZINC000095564694    0.0800
49     C49     3.1361   -2.9692    0.0082 C.3      1 ZINC000095564694   -0.1100
50     H50     0.9122    1.8585    0.0033 H        1 ZINC000095564694    0.1000
51     H51    -0.9582    1.8330    0.0166 H        1 ZINC000095564694    0.1000
52     H52    -0.9258   -0.5567    0.0079 H        1 ZINC000095564694    0.1100
53     H53     1.4134   -1.2911   -0.9498 H        1 ZINC000095564694    0.0500
54     H54     2.1349   -0.0241    0.0711 H        1 ZINC000095564694    0.0800
55     H55    -0.6351   -2.2509    0.8713 H        1 ZINC000095564694    0.0800
56     H56     0.5535   -3.3192    0.0937 H        1 ZINC000095564694    0.0400
57     H57     0.0888   -3.0376    3.1015 H        1 ZINC000095564694    0.0900
58     H58    -0.3870   -4.4250    2.0869 H        1 ZINC000095564694    0.0700
59     H59     3.3945   -4.9208   -1.9714 H        1 ZINC000095564694    0.1200
60     H60     2.7829   -7.2713   -1.7763 H        1 ZINC000095564694    0.1300
61     H61     2.4763   -9.0307    0.6514 H        1 ZINC000095564694    0.3800
62     H62     5.4715   -6.9618    4.1457 H        1 ZINC000095564694    0.0600
63     H63     4.1390   -8.1002    4.4566 H        1 ZINC000095564694    0.0600
64     H64     5.8796   -9.2389    3.1657 H        1 ZINC000095564694    0.0600
65     H65     4.4442   -9.0158    2.1370 H        1 ZINC000095564694    0.0500
66     H66     7.2947   -9.3279    1.1718 H        1 ZINC000095564694    0.0600
67     H67     5.8593   -9.1048    0.1431 H        1 ZINC000095564694    0.0600
68     H68     7.8390   -8.3195   -1.0641 H        1 ZINC000095564694    0.0600
69     H69     6.8216   -6.9211   -0.6427 H        1 ZINC000095564694    0.0600
70     H70     9.8035   -6.8638   -1.1523 H        1 ZINC000095564694    0.0600
71     H71     8.7861   -5.4653   -0.7309 H        1 ZINC000095564694    0.0600
72     H72    11.0940   -5.0089   -0.0540 H        1 ZINC000095564694    0.0600
73     H73    10.0914   -5.2194    1.4016 H        1 ZINC000095564694    0.0600
74     H74    13.0780   -5.6679    1.2172 H        1 ZINC000095564694    0.0600
75     H75    12.0754   -5.8784    2.6728 H        1 ZINC000095564694    0.0600
76     H76    14.0752   -7.2767    2.8692 H        1 ZINC000095564694    0.0600
77     H77    12.6515   -8.3237    2.6571 H        1 ZINC000095564694    0.0600
78     H78    15.5057   -9.0351    1.9484 H        1 ZINC000095564694    0.0600
79     H79    14.0820  -10.0822    1.7362 H        1 ZINC000095564694    0.0600
80     H80    15.8184  -10.7611    0.1497 H        1 ZINC000095564694    0.0600
81     H81    14.4686  -10.0231   -0.7455 H        1 ZINC000095564694    0.0600
82     H82    17.3459  -10.1733   -1.6689 H        1 ZINC000095564694    0.0600
83     H83    15.9961   -9.4353   -2.5641 H        1 ZINC000095564694    0.0600
84     H84    18.0961   -8.4110   -3.2947 H        1 ZINC000095564694    0.0600
85     H85    17.1518   -7.2123   -2.3784 H        1 ZINC000095564694    0.0600
86     H86    20.1567   -7.2177   -2.7323 H        1 ZINC000095564694    0.0600
87     H87    19.2124   -6.0190   -1.8160 H        1 ZINC000095564694    0.0600
88     H88    21.4993   -6.0727   -0.9439 H        1 ZINC000095564694    0.0600
89     H89    20.3957   -6.7561    0.2741 H        1 ZINC000095564694    0.0600
90     H90    22.2470   -8.0365    1.2330 H        1 ZINC000095564694    0.0400
91     H91    23.1656   -9.1177    0.1580 H        1 ZINC000095564694    0.0900
92     H92    23.3505   -7.3531    0.0150 H        1 ZINC000095564694    0.0400
93     H93     3.7487   -3.8954    4.8871 H        1 ZINC000095564694    0.0800
94     H94     5.0888   -4.9007    4.3008 H        1 ZINC000095564694    0.0700
95     H95     4.8834   -2.8869    2.9112 H        1 ZINC000095564694    0.0700
96     H96     4.4478   -4.3249    1.9498 H        1 ZINC000095564694    0.0900
97     H97     2.9763   -1.5402    3.8143 H        1 ZINC000095564694    0.3800
98     H98     4.2205   -2.9115   -0.0859 H        1 ZINC000095564694    0.0900
99     H99     2.6858   -2.4699   -0.8497 H        1 ZINC000095564694    0.0800
@<TRIPOS>BOND
1     1     2     2
2     1     50    1
3     1     51    1
4     2     3     1
5     2     52    1
6     3     4     1
7     3     53    1
8     3     54    1
9     4     47    1
10    4     5     1
11    5     6     1
12    5     55    1
13    5     56    1
14    6     7     1
15    6     57    1
16    6     58    1
17    7     16    1
18    7     45    1
19    7     8     1
20    8     14    ar
21    8     9     ar
22    9     49    1
23    9     10    ar
24    10    11    ar
25    10    59    1
26    11    12    ar
27    11    60    1
28    12    13    1
29    12    14    ar
30    13    61    1
31    14    15    1
32    15    16    1
33    16    17    1
34    16    18    1
35    18    19    1
36    18    20    1
37    18    43    1
38    20    21    1
39    21    22    1
40    21    62    1
41    21    63    1
42    22    23    1
43    22    64    1
44    22    65    1
45    23    24    1
46    24    25    1
47    24    66    1
48    24    67    1
49    25    26    1
50    25    68    1
51    25    69    1
52    26    27    1
53    27    28    1
54    27    70    1
55    27    71    1
56    28    29    1
57    28    72    1
58    28    73    1
59    29    30    1
60    30    31    1
61    30    74    1
62    30    75    1
63    31    32    1
64    31    76    1
65    31    77    1
66    32    33    1
67    33    34    1
68    33    78    1
69    33    79    1
70    34    35    1
71    34    80    1
72    34    81    1
73    35    36    1
74    36    37    1
75    36    82    1
76    36    83    1
77    37    38    1
78    37    84    1
79    37    85    1
80    38    39    1
81    39    40    1
82    39    86    1
83    39    87    1
84    40    41    1
85    40    88    1
86    40    89    1
87    41    42    1
88    42    90    1
89    42    91    1
90    42    92    1
91    43    44    1
92    43    93    1
93    43    94    1
94    44    45    1
95    44    95    1
96    44    96    1
97    45    46    1
98    45    47    1
99    46    97    1
100   47    48    1
101   47    49    1
102   49    98    1
103   49    99    1
@<TRIPOS>SUBSTRUCTURE
1   ZINC000095564694 1     RESIDUE    1   A     ZIN   1
