@<TRIPOS>MOLECULE
ZINC000001530938
37    37    1     0     0
SMALL
USER_CHARGES
@<TRIPOS>ATOM
1      C1      1.8738    1.7479    1.3157 C.3      1 ZINC000001530938   -0.1500
2      C2      2.0237    0.2896    0.8777 C.3      1 ZINC000001530938    0.0500
3      N3      0.7740   -0.4338    1.1478 N.3      1 ZINC000001530938   -0.5300
4      C4     -0.3195    0.0727    0.3078 C.3      1 ZINC000001530938    0.0500
5      C5     -1.6597   -0.3968    0.8774 C.3      1 ZINC000001530938   -0.1500
6      C6      0.9526   -1.8802    0.9637 C.3      1 ZINC000001530938    0.0500
7      C7      1.7119   -2.4567    2.1604 C.3      1 ZINC000001530938    0.0800
8      O8      0.9068   -2.3113    3.3600 O.3      1 ZINC000001530938   -0.3400
9      C9      1.4732   -2.6816    4.5255 C.2      1 ZINC000001530938    0.5100
10     O10     2.6088   -3.1140    4.5389 O.2      1 ZINC000001530938   -0.5000
11     C11     0.7157   -2.5620    5.7832 C.ar     1 ZINC000001530938   -0.1900
12     C12    -0.5933   -2.0700    5.7691 C.ar     1 ZINC000001530938    0.0000
13     C13    -1.2952   -1.9594    6.9355 C.ar     1 ZINC000001530938   -0.2100
14     C14    -0.7125   -2.3352    8.1430 C.ar     1 ZINC000001530938    0.2700
15     N15    -1.4329   -2.2193    9.3262 N.pl3    1 ZINC000001530938   -0.8600
16     C16     0.5896   -2.8270    8.1683 C.ar     1 ZINC000001530938   -0.2100
17     C17     1.3024   -2.9462    6.9953 C.ar     1 ZINC000001530938    0.0700
18     Cl18    2.9263   -3.5595    7.0213 Cl       1 ZINC000001530938   -0.0300
19     H19     1.6552    1.7861    2.3828 H        1 ZINC000001530938    0.0600
20     H20     2.8011    2.2846    1.1153 H        1 ZINC000001530938    0.0600
21     H21     1.0582    2.2118    0.7609 H        1 ZINC000001530938    0.0600
22     H22     2.2423    0.2514   -0.1895 H        1 ZINC000001530938    0.0300
23     H23     2.8392   -0.1744    1.4324 H        1 ZINC000001530938    0.0700
24     H24    -0.2924    1.1623    0.2940 H        1 ZINC000001530938    0.0800
25     H25    -0.2034   -0.3065   -0.7075 H        1 ZINC000001530938    0.0300
26     H26    -2.4698   -0.0406    0.2411 H        1 ZINC000001530938    0.0600
27     H27    -1.6777   -1.4861    0.9129 H        1 ZINC000001530938    0.0500
28     H28    -1.7863    0.0016    1.8840 H        1 ZINC000001530938    0.0600
29     H29    -0.0231   -2.3600    0.8871 H        1 ZINC000001530938    0.0900
30     H30     1.5200   -2.0630    0.0511 H        1 ZINC000001530938    0.0600
31     H31     1.9168   -3.5130    1.9861 H        1 ZINC000001530938    0.0700
32     H32     2.6523   -1.9202    2.2867 H        1 ZINC000001530938    0.0700
33     H33    -1.0495   -1.7769    4.8351 H        1 ZINC000001530938    0.1500
34     H34    -2.3058   -1.5787    6.9213 H        1 ZINC000001530938    0.1300
35     H35    -2.3404   -1.8771    9.3099 H        1 ZINC000001530938    0.4100
36     H36    -1.0281   -2.4807   10.1681 H        1 ZINC000001530938    0.4000
37     H37     1.0393   -3.1181    9.1061 H        1 ZINC000001530938    0.1400
@<TRIPOS>BOND
1     1     2     1
2     1     19    1
3     1     20    1
4     1     21    1
5     2     3     1
6     2     22    1
7     2     23    1
8     3     4     1
9     3     6     1
10    4     5     1
11    4     24    1
12    4     25    1
13    5     26    1
14    5     27    1
15    5     28    1
16    6     7     1
17    6     29    1
18    6     30    1
19    7     8     1
20    7     31    1
21    7     32    1
22    8     9     1
23    9     10    2
24    9     11    1
25    11    17    ar
26    11    12    ar
27    12    13    ar
28    12    33    1
29    13    14    ar
30    13    34    1
31    14    15    1
32    14    16    ar
33    15    35    1
34    15    36    1
35    16    17    ar
36    16    37    1
37    17    18    1
@<TRIPOS>SUBSTRUCTURE
1   ZINC000001530938 1     RESIDUE    1   A     ZIN   1
