@<TRIPOS>MOLECULE
ZINC000000075126
42    45    1     0     0
SMALL
USER_CHARGES
@<TRIPOS>ATOM
1      C1     -0.0184    1.5028    0.0103 C.3      1 ZINC000000075126   -0.1100
2      C2      0.0021   -0.0041    0.0020 C.cat    1 ZINC000000075126    0.3000
3      N3      0.0080   -0.7588   -1.0626 N.pl3    1 ZINC000000075126   -0.4700
4      H4     -0.0004   -0.4384   -1.9781 H        1 ZINC000000075126    0.4600
5      C5      0.0275   -2.0475   -0.6911 C.2      1 ZINC000000075126   -0.0200
6      C6      0.0339   -2.0930    0.6548 C.2      1 ZINC000000075126    0.0800
7      N7      0.0232   -0.7970    1.0950 N.pl3    1 ZINC000000075126   -0.4000
8      C8      0.0255   -0.3530    2.4911 C.3      1 ZINC000000075126    0.1100
9      C9     -1.4119   -0.0923    2.9457 C.3      1 ZINC000000075126   -0.1600
10     H10    -1.8839    0.6156    2.2644 H        1 ZINC000000075126    0.1200
11     C11    -1.3988    0.4943    4.3572 C.3      1 ZINC000000075126   -0.1000
12     C12    -2.8297    0.7627    4.8391 C.3      1 ZINC000000075126   -0.0700
13     C13    -3.6064   -0.5291    4.7449 C.2      1 ZINC000000075126    0.1600
14     C14    -3.2687   -1.5256    3.8354 C.2      1 ZINC000000075126   -0.2900
15     C15    -4.2188   -2.6069    4.0373 C.ar     1 ZINC000000075126   -0.0500
16     C16    -4.3840   -3.8529    3.4348 C.ar     1 ZINC000000075126   -0.0800
17     C17    -5.4257   -4.6392    3.8974 C.ar     1 ZINC000000075126   -0.1200
18     C18    -6.2678   -4.2139    4.9098 C.ar     1 ZINC000000075126   -0.1000
19     C19    -6.1212   -2.9801    5.5210 C.ar     1 ZINC000000075126   -0.1100
20     C20    -5.0804   -2.1697    5.0747 C.ar     1 ZINC000000075126    0.0700
21     N21    -4.6734   -0.9194    5.4616 N.pl3    1 ZINC000000075126   -0.4400
22     C22    -5.3131   -0.1201    6.5095 C.3      1 ZINC000000075126    0.0600
23     C23    -2.1857   -1.3923    2.9339 C.2      1 ZINC000000075126    0.4400
24     O24    -1.8892   -2.2901    2.1725 O.2      1 ZINC000000075126   -0.4800
25     H25     1.0042    1.8801    0.0026 H        1 ZINC000000075126    0.1200
26     H26    -0.5455    1.8639   -0.8728 H        1 ZINC000000075126    0.1200
27     H27    -0.5286    1.8543    0.9071 H        1 ZINC000000075126    0.1100
28     H28     0.0365   -2.8993   -1.3550 H        1 ZINC000000075126    0.2200
29     H29     0.0489   -2.9814    1.2688 H        1 ZINC000000075126    0.2200
30     H30     0.4701   -1.1263    3.1175 H        1 ZINC000000075126    0.1300
31     H31     0.6067    0.5649    2.5795 H        1 ZINC000000075126    0.1300
32     H32    -0.9162   -0.2094    5.0355 H        1 ZINC000000075126    0.0900
33     H33    -0.8384    1.4291    4.3539 H        1 ZINC000000075126    0.1000
34     H34    -2.8115    1.1066    5.8732 H        1 ZINC000000075126    0.1000
35     H35    -3.2952    1.5190    4.2071 H        1 ZINC000000075126    0.1000
36     H36    -3.7302   -4.1892    2.6438 H        1 ZINC000000075126    0.1400
37     H37    -5.5857   -5.6116    3.4554 H        1 ZINC000000075126    0.1300
38     H38    -7.0658   -4.8656    5.2336 H        1 ZINC000000075126    0.1300
39     H39    -6.7858   -2.6599    6.3098 H        1 ZINC000000075126    0.1300
40     H40    -4.8485   -0.3420    7.4703 H        1 ZINC000000075126    0.0900
41     H41    -5.1919    0.9393    6.2834 H        1 ZINC000000075126    0.0900
42     H42    -6.3747   -0.3628    6.5545 H        1 ZINC000000075126    0.0900
@<TRIPOS>BOND
1     1     2     1
2     1     25    1
3     1     26    1
4     1     27    1
5     2     7     ar
6     2     3     ar
7     3     4     1
8     3     5     1
9     5     6     2
10    5     28    1
11    6     7     1
12    6     29    1
13    7     8     1
14    8     9     1
15    8     30    1
16    8     31    1
17    9     10    1
18    9     23    1
19    9     11    1
20    11    12    1
21    11    32    1
22    11    33    1
23    12    13    1
24    12    34    1
25    12    35    1
26    13    21    1
27    13    14    2
28    14    15    1
29    14    23    1
30    15    20    ar
31    15    16    ar
32    16    17    ar
33    16    36    1
34    17    18    ar
35    17    37    1
36    18    19    ar
37    18    38    1
38    19    20    ar
39    19    39    1
40    20    21    1
41    21    22    1
42    22    40    1
43    22    41    1
44    22    42    1
45    23    24    2
@<TRIPOS>SUBSTRUCTURE
1   ZINC000000075126 1     RESIDUE    1   A     ZIN   1
