@<TRIPOS>MOLECULE
ZINC000003929508
51   51    0    0    0
SMALL
USER_CHARGES
NO_NAME
@<TRIPOS>ATOM
1 C1       -0.0187     1.5258     0.0104 C.3    1 <0>      -0.1500
2 C2        0.0021    -0.0041     0.0020 C.3    1 <0>       0.0600
3 O3       -1.3601    -0.5067     0.0123 O.3    1 <0>      -0.3600
4 C4       -1.5186    -1.8453     0.0066 C.2    1 <0>       0.5000
5 O5       -0.5449    -2.5724    -0.0066 O.2    1 <0>      -0.4900
6 C6       -2.8687    -2.4254     0.0164 C.2    1 <0>      -0.1500
7 C7       -2.9803    -3.7371     0.0158 C.2    1 <0>      -0.0700
8 C8       -4.2941    -4.4629     0.0155 C.3    1 <0>       0.1000
9 H9       -4.4984    -4.8398    -0.9867 H      1 <0>       0.1100
10 O10      -4.2298    -5.5592     0.9299 O.3    1 <0>      -0.3300
11 C11      -3.7753    -6.7801     0.3426 C.3    1 <0>       0.0900
12 C12      -3.0480    -7.6144     1.3989 C.3    1 <0>      -0.1200
13 C13      -1.7801    -6.8822     1.8429 C.3    1 <0>      -0.1500
14 C14      -4.9742    -7.5663    -0.1917 C.3    1 <0>      -0.1500
15 C15      -5.6276    -6.7862    -1.3342 C.3    1 <0>      -0.1700
16 C16      -5.4187    -3.5166     0.4406 C.3    1 <0>       0.1300
17 H17      -5.3166    -3.2789     1.4995 H      1 <0>       0.1300
18 N18      -6.7156    -4.1550     0.2024 N.am   1 <0>      -0.7500
19 C19      -7.2395    -4.9825     1.1282 C.2    1 <0>       0.5100
20 C20      -8.5736    -5.6392     0.8831 C.3    1 <0>      -0.1800
21 O21      -6.6374    -5.1986     2.1586 O.2    1 <0>      -0.4900
22 C22      -5.3127    -2.2308    -0.3886 C.3    1 <0>       0.0200
23 H23      -5.2605    -2.4816    -1.4480 H      1 <0>       0.1600
24 N24      -6.4871    -1.3844    -0.1390 N.4    1 <0>      -0.6300
25 H25      -6.5295    -1.1484     0.8411 H      1 <0>       0.4400
26 H26      -6.4149    -0.5393    -0.6856 H      1 <0>       0.4400
27 H27      -7.3236    -1.8841    -0.4011 H      1 <0>       0.4400
28 C28      -4.0410    -1.4882     0.0327 C.3    1 <0>      -0.0900
29 H29       1.0039     1.9031     0.0027 H      1 <0>       0.0900
30 H30      -0.5459     1.8868    -0.8726 H      1 <0>       0.0700
31 H31      -0.5289     1.8773     0.9072 H      1 <0>       0.0700
32 H32       0.5123    -0.3556    -0.8948 H      1 <0>       0.0800
33 H33       0.5293    -0.3651     0.8851 H      1 <0>       0.0800
34 H34      -2.0742    -4.3248     0.0151 H      1 <0>       0.1500
35 H35      -3.0927    -6.5568    -0.4773 H      1 <0>       0.0600
36 H36      -3.7019    -7.7625     2.2584 H      1 <0>       0.0800
37 H37      -2.7794    -8.5823     0.9757 H      1 <0>       0.0800
38 H38      -1.2620    -7.4766     2.5955 H      1 <0>       0.0600
39 H39      -1.1263    -6.7341     0.9835 H      1 <0>       0.0500
40 H40      -2.0488    -5.9143     2.2661 H      1 <0>       0.0600
41 H41      -4.6382    -8.5359    -0.5593 H      1 <0>       0.0800
42 H42      -5.6989    -7.7127     0.6093 H      1 <0>       0.0700
43 H43      -5.9636    -5.8166    -0.9666 H      1 <0>       0.0600
44 H44      -4.9029    -6.6398    -2.1352 H      1 <0>       0.0500
45 H45      -6.4817    -7.3463    -1.7148 H      1 <0>       0.0600
46 H46      -7.1971    -3.9821    -0.6217 H      1 <0>       0.4000
47 H47      -8.9591    -5.3275    -0.0876 H      1 <0>       0.0800
48 H48      -8.4530    -6.7224     0.8954 H      1 <0>       0.1000
49 H49      -9.2735    -5.3426     1.6643 H      1 <0>       0.1000
50 H50      -4.1743    -1.0839     1.0361 H      1 <0>       0.1100
51 H51      -3.8535    -0.6698    -0.6625 H      1 <0>       0.1200
@<TRIPOS>BOND
1    1    2 1
2    1   29 1
3    1   30 1
4    1   31 1
5    2    3 1
6    2   32 1
7    2   33 1
8    3    4 1
9    4    5 2
10    4    6 1
11    6   28 1
12    6    7 2
13    7    8 1
14    7   34 1
15    8    9 1
16    8   10 1
17    8   16 1
18   10   11 1
19   11   12 1
20   11   14 1
21   11   35 1
22   12   13 1
23   12   36 1
24   12   37 1
25   13   38 1
26   13   39 1
27   13   40 1
28   14   15 1
29   14   41 1
30   14   42 1
31   15   43 1
32   15   44 1
33   15   45 1
34   16   17 1
35   16   18 1
36   16   22 1
37   18   19 am
38   18   46 1
39   19   20 1
40   19   21 2
41   20   47 1
42   20   48 1
43   20   49 1
44   22   23 1
45   22   24 1
46   22   28 1
47   24   25 1
48   24   26 1
49   24   27 1
50   28   50 1
51   28   51 1
