@<TRIPOS>MOLECULE
ZINC000030691760
53    54    1     0     0
SMALL
USER_CHARGES
@<TRIPOS>ATOM
1      C1      3.1034   -9.6357    0.3342 C.3      1 ZINC000030691760   -0.1500
2      C2      2.8538   -9.1318   -1.0887 C.3      1 ZINC000030691760   -0.1100
3      C3      2.7127   -7.6084   -1.0729 C.3      1 ZINC000030691760   -0.1200
4      C4      2.4669   -7.1122   -2.4744 C.2      1 ZINC000030691760    0.4600
5      O5      2.4103   -7.8964   -3.3918 O.2      1 ZINC000030691760   -0.4900
6      O6      2.3107   -5.7988   -2.7036 O.3      1 ZINC000030691760   -0.3600
7      C7      2.0772   -5.3927   -4.0780 C.3      1 ZINC000030691760    0.2300
8      O8      0.7347   -5.7135   -4.4479 O.3      1 ZINC000030691760   -0.3500
9      C9     -0.2421   -4.9238   -3.9544 C.2      1 ZINC000030691760    0.5300
10     O10     0.0401   -3.9882   -3.2294 O.2      1 ZINC000030691760   -0.4700
11     C11    -1.5935   -5.1837   -4.2799 C.2      1 ZINC000030691760   -0.2300
12     C12    -2.0491   -4.8613   -5.5028 C.2      1 ZINC000030691760    0.1900
13     C13    -1.1171   -4.2219   -6.4995 C.3      1 ZINC000030691760   -0.1300
14     N14    -3.3485   -5.1069   -5.8537 N.pl3    1 ZINC000030691760   -0.6300
15     C15    -4.1036   -5.9898   -5.1309 C.2      1 ZINC000030691760    0.2400
16     C16    -5.3651   -6.5553   -5.7306 C.3      1 ZINC000030691760   -0.1200
17     C17    -3.7341   -6.3586   -3.8922 C.2      1 ZINC000030691760   -0.2600
18     C18    -4.5344   -7.2793   -3.1768 C.2      1 ZINC000030691760    0.5200
19     O19    -5.5454   -7.7287   -3.6835 O.2      1 ZINC000030691760   -0.5200
20     O20    -4.1770   -7.6594   -1.9323 O.3      1 ZINC000030691760   -0.3400
21     C21    -5.0319   -8.5923   -1.2682 C.3      1 ZINC000030691760    0.0400
22     C22    -2.4874   -5.8199   -3.2535 C.3      1 ZINC000030691760    0.0800
23     H23    -1.9559   -6.6340   -2.7608 H        1 ZINC000030691760    0.1000
24     C24    -2.8640   -4.7812   -2.2286 C.ar     1 ZINC000030691760   -0.0500
25     C25    -3.5663   -3.6545   -2.6124 C.ar     1 ZINC000030691760   -0.0900
26     C26    -3.9126   -2.7013   -1.6727 C.ar     1 ZINC000030691760   -0.1000
27     C27    -3.5569   -2.8741   -0.3484 C.ar     1 ZINC000030691760   -0.1000
28     C28    -2.8538   -4.0013    0.0376 C.ar     1 ZINC000030691760   -0.0300
29     Cl29   -2.4067   -4.2189    1.7008 Cl       1 ZINC000030691760   -0.0500
30     C30    -2.5116   -4.9583   -0.9025 C.ar     1 ZINC000030691760   -0.0100
31     Cl31   -1.6299   -6.3737   -0.4198 Cl       1 ZINC000030691760   -0.0400
32     H32     4.0194   -9.1900    0.7221 H        1 ZINC000030691760    0.0600
33     H33     2.2647   -9.3551    0.9714 H        1 ZINC000030691760    0.0600
34     H34     3.2040  -10.7210    0.3230 H        1 ZINC000030691760    0.0600
35     H35     3.6925   -9.4124   -1.7258 H        1 ZINC000030691760    0.0700
36     H36     1.9379   -9.5776   -1.4765 H        1 ZINC000030691760    0.0700
37     H37     1.8740   -7.3278   -0.4357 H        1 ZINC000030691760    0.1100
38     H38     3.6287   -7.1627   -0.6850 H        1 ZINC000030691760    0.1100
39     H39     2.2327   -4.3179   -4.1707 H        1 ZINC000030691760    0.1200
40     H40     2.7705   -5.9181   -4.7349 H        1 ZINC000030691760    0.1200
41     H41    -0.5570   -4.9971   -7.0224 H        1 ZINC000030691760    0.1000
42     H42    -1.6963   -3.6438   -7.2196 H        1 ZINC000030691760    0.0800
43     H43    -0.4239   -3.5622   -5.9776 H        1 ZINC000030691760    0.0900
44     H44    -3.7363   -4.6529   -6.6181 H        1 ZINC000030691760    0.4200
45     H45    -5.5057   -6.1481   -6.7318 H        1 ZINC000030691760    0.0600
46     H46    -5.2854   -7.6409   -5.7878 H        1 ZINC000030691760    0.1100
47     H47    -6.2168   -6.2860   -5.1059 H        1 ZINC000030691760    0.1000
48     H48    -4.6305   -8.8126   -0.2791 H        1 ZINC000030691760    0.1000
49     H49    -6.0292   -8.1638   -1.1685 H        1 ZINC000030691760    0.0600
50     H50    -5.0881   -9.5119   -1.8506 H        1 ZINC000030691760    0.0600
51     H51    -3.8444   -3.5184   -3.6471 H        1 ZINC000030691760    0.1300
52     H52    -4.4611   -1.8210   -1.9737 H        1 ZINC000030691760    0.1400
53     H53    -3.8274   -2.1289    0.3851 H        1 ZINC000030691760    0.1400
@<TRIPOS>BOND
1     1     2     1
2     1     32    1
3     1     33    1
4     1     34    1
5     2     3     1
6     2     35    1
7     2     36    1
8     3     4     1
9     3     37    1
10    3     38    1
11    4     5     2
12    4     6     1
13    6     7     1
14    7     8     1
15    7     39    1
16    7     40    1
17    8     9     1
18    9     10    2
19    9     11    1
20    11    22    1
21    11    12    2
22    12    13    1
23    12    14    1
24    13    41    1
25    13    42    1
26    13    43    1
27    14    15    1
28    14    44    1
29    15    16    1
30    15    17    2
31    16    45    1
32    16    46    1
33    16    47    1
34    17    18    1
35    17    22    1
36    18    19    2
37    18    20    1
38    20    21    1
39    21    48    1
40    21    49    1
41    21    50    1
42    22    23    1
43    22    24    1
44    24    30    ar
45    24    25    ar
46    25    26    ar
47    25    51    1
48    26    27    ar
49    26    52    1
50    27    28    ar
51    27    53    1
52    28    29    1
53    28    30    ar
54    30    31    1
@<TRIPOS>SUBSTRUCTURE
1   ZINC000030691760 1     RESIDUE    1   A     ZIN   1
