@<TRIPOS>MOLECULE
ZINC000030691763
53    54    1     0     0
SMALL
USER_CHARGES
@<TRIPOS>ATOM
1      C1      3.1735   -8.8496    0.8279 C.3      1 ZINC000030691763   -0.1500
2      C2      2.9538   -8.4459   -0.6314 C.3      1 ZINC000030691763   -0.1100
3      C3      2.6898   -6.9409   -0.7100 C.3      1 ZINC000030691763   -0.1200
4      C4      2.4734   -6.5432   -2.1474 C.2      1 ZINC000030691763    0.4600
5      O5      2.5251   -7.3779   -3.0195 O.2      1 ZINC000030691763   -0.4900
6      O6      2.2233   -5.2618   -2.4589 O.3      1 ZINC000030691763   -0.3600
7      C7      2.0252   -4.9513   -3.8634 C.3      1 ZINC000030691763    0.2300
8      O8      0.7325   -5.4021   -4.2731 O.3      1 ZINC000030691763   -0.3500
9      C9     -0.3276   -4.6710   -3.8697 C.2      1 ZINC000030691763    0.5300
10     O10    -0.1575   -3.6773   -3.1883 O.2      1 ZINC000030691763   -0.4800
11     C11    -1.6362   -5.0596   -4.2390 C.2      1 ZINC000030691763   -0.2300
12     C12    -2.0491   -4.8613   -5.5028 C.2      1 ZINC000030691763    0.1900
13     C13    -1.1103   -4.2378   -6.5033 C.3      1 ZINC000030691763   -0.1300
14     N14    -3.3111   -5.2190   -5.8919 N.pl3    1 ZINC000030691763   -0.6300
15     C15    -4.2845   -5.4423   -4.9567 C.2      1 ZINC000030691763    0.2400
16     C16    -5.7325   -5.4391   -5.3743 C.3      1 ZINC000030691763   -0.1200
17     C17    -3.9651   -5.6648   -3.6701 C.2      1 ZINC000030691763   -0.2600
18     C18    -4.9975   -5.8846   -2.7290 C.2      1 ZINC000030691763    0.5200
19     O19    -6.1603   -5.8710   -3.0873 O.2      1 ZINC000030691763   -0.5200
20     O20    -4.6931   -6.1095   -1.4337 O.3      1 ZINC000030691763   -0.3400
21     C21    -5.7859   -6.3236   -0.5382 C.3      1 ZINC000030691763    0.0400
22     C22    -2.5328   -5.6907   -3.2119 C.3      1 ZINC000030691763    0.0800
23     H23    -2.4449   -5.1367   -2.2773 H        1 ZINC000030691763    0.1100
24     C24    -2.1108   -7.1192   -2.9833 C.ar     1 ZINC000030691763   -0.0600
25     C25    -2.1427   -8.0247   -4.0269 C.ar     1 ZINC000030691763   -0.0800
26     C26    -1.7552   -9.3354   -3.8182 C.ar     1 ZINC000030691763   -0.1000
27     C27    -1.3354   -9.7416   -2.5657 C.ar     1 ZINC000030691763   -0.1000
28     C28    -1.3028   -8.8366   -1.5198 C.ar     1 ZINC000030691763   -0.0300
29     Cl29   -0.7756   -9.3463    0.0537 Cl       1 ZINC000030691763   -0.0500
30     C30    -1.6858   -7.5229   -1.7301 C.ar     1 ZINC000030691763   -0.0200
31     Cl31   -1.6449   -6.3858   -0.4189 Cl       1 ZINC000030691763   -0.0400
32     H32     4.0306   -8.3089    1.2294 H        1 ZINC000030691763    0.0600
33     H33     2.2849   -8.6057    1.4101 H        1 ZINC000030691763    0.0600
34     H34     3.3616   -9.9218    0.8839 H        1 ZINC000030691763    0.0600
35     H35     3.8425   -8.6898   -1.2136 H        1 ZINC000030691763    0.0700
36     H36     2.0968   -8.9866   -1.0329 H        1 ZINC000030691763    0.0700
37     H37     1.8012   -6.6970   -0.1278 H        1 ZINC000030691763    0.1100
38     H38     3.5469   -6.4002   -0.3085 H        1 ZINC000030691763    0.1100
39     H39     2.0979   -3.8738   -4.0111 H        1 ZINC000030691763    0.1200
40     H40     2.7897   -5.4519   -4.4575 H        1 ZINC000030691763    0.1200
41     H41    -0.5610   -5.0222   -7.0239 H        1 ZINC000030691763    0.1000
42     H42    -1.6831   -3.6552   -7.2248 H        1 ZINC000030691763    0.0900
43     H43    -0.4080   -3.5851   -5.9848 H        1 ZINC000030691763    0.0800
44     H44    -3.5166   -5.3144   -6.8351 H        1 ZINC000030691763    0.4200
45     H45    -5.8016   -5.2443   -6.4445 H        1 ZINC000030691763    0.0600
46     H46    -6.1768   -6.4094   -5.1522 H        1 ZINC000030691763    0.1000
47     H47    -6.2664   -4.6614   -4.8282 H        1 ZINC000030691763    0.1100
48     H48    -5.4032   -6.4917    0.4685 H        1 ZINC000030691763    0.1000
49     H49    -6.4335   -5.4468   -0.5390 H        1 ZINC000030691763    0.0600
50     H50    -6.3547   -7.1956   -0.8610 H        1 ZINC000030691763    0.0600
51     H51    -2.4709   -7.7083   -5.0060 H        1 ZINC000030691763    0.1300
52     H52    -1.7809  -10.0423   -4.6343 H        1 ZINC000030691763    0.1400
53     H53    -1.0332  -10.7657   -2.4032 H        1 ZINC000030691763    0.1400
@<TRIPOS>BOND
1     1     2     1
2     1     32    1
3     1     33    1
4     1     34    1
5     2     3     1
6     2     35    1
7     2     36    1
8     3     4     1
9     3     37    1
10    3     38    1
11    4     5     2
12    4     6     1
13    6     7     1
14    7     8     1
15    7     39    1
16    7     40    1
17    8     9     1
18    9     10    2
19    9     11    1
20    11    22    1
21    11    12    2
22    12    13    1
23    12    14    1
24    13    41    1
25    13    42    1
26    13    43    1
27    14    15    1
28    14    44    1
29    15    16    1
30    15    17    2
31    16    45    1
32    16    46    1
33    16    47    1
34    17    18    1
35    17    22    1
36    18    19    2
37    18    20    1
38    20    21    1
39    21    48    1
40    21    49    1
41    21    50    1
42    22    23    1
43    22    24    1
44    24    30    ar
45    24    25    ar
46    25    26    ar
47    25    51    1
48    26    27    ar
49    26    52    1
50    27    28    ar
51    27    53    1
52    28    29    1
53    28    30    ar
54    30    31    1
@<TRIPOS>SUBSTRUCTURE
1   ZINC000030691763 1     RESIDUE    1   A     ZIN   1
