@<TRIPOS>MOLECULE
ZINC000008437287
46    45    1     0     0
SMALL
USER_CHARGES
@<TRIPOS>ATOM
1      C1     -0.0187    1.5258    0.0104 C.3      1 ZINC000008437287   -0.1500
2      C2      0.0021   -0.0041    0.0020 C.3      1 ZINC000008437287   -0.1300
3      C3     -1.4333   -0.5336    0.0129 C.3      1 ZINC000008437287   -0.1200
4      C4     -1.4126   -2.0635    0.0045 C.3      1 ZINC000008437287   -0.1200
5      C5     -2.8479   -2.5931    0.0153 C.3      1 ZINC000008437287   -0.1200
6      C6     -2.8272   -4.1229    0.0069 C.3      1 ZINC000008437287   -0.1200
7      C7     -4.2626   -4.6525    0.0178 C.3      1 ZINC000008437287   -0.1200
8      C8     -4.2418   -6.1823    0.0094 C.3      1 ZINC000008437287   -0.1200
9      C9     -5.6772   -6.7119    0.0202 C.3      1 ZINC000008437287   -0.1200
10     C10    -5.6565   -8.2417    0.0118 C.3      1 ZINC000008437287   -0.1200
11     C11    -7.0918   -8.7713    0.0227 C.3      1 ZINC000008437287   -0.1200
12     C12    -7.0711  -10.3012    0.0143 C.3      1 ZINC000008437287    0.0600
13     O13    -8.4117  -10.7958    0.0244 O.3      1 ZINC000008437287   -0.3800
14     C14    -8.5052  -12.2217    0.0176 C.3      1 ZINC000008437287    0.0600
15     C15    -9.9779  -12.6363    0.0295 C.3      1 ZINC000008437287    0.0800
16     O16   -10.6024  -12.2107   -1.1834 O.3      1 ZINC000008437287   -0.5700
17     H17     1.0039    1.9031    0.0027 H        1 ZINC000008437287    0.0500
18     H18    -0.5459    1.8868   -0.8726 H        1 ZINC000008437287    0.0500
19     H19    -0.5289    1.8773    0.9072 H        1 ZINC000008437287    0.0500
20     H20     0.5123   -0.3556   -0.8948 H        1 ZINC000008437287    0.0600
21     H21     0.5293   -0.3651    0.8851 H        1 ZINC000008437287    0.0600
22     H22    -1.9435   -0.1821    0.9097 H        1 ZINC000008437287    0.0600
23     H23    -1.9605   -0.1726   -0.8702 H        1 ZINC000008437287    0.0600
24     H24    -0.9024   -2.4150   -0.8923 H        1 ZINC000008437287    0.0600
25     H25    -0.8854   -2.4246    0.8875 H        1 ZINC000008437287    0.0600
26     H26    -3.3581   -2.2415    0.9121 H        1 ZINC000008437287    0.0600
27     H27    -3.3751   -2.2320   -0.8677 H        1 ZINC000008437287    0.0600
28     H28    -2.3170   -4.4744   -0.8899 H        1 ZINC000008437287    0.0600
29     H29    -2.3000   -4.4840    0.8900 H        1 ZINC000008437287    0.0600
30     H30    -4.7728   -4.3010    0.9146 H        1 ZINC000008437287    0.0600
31     H31    -4.7898   -4.2914   -0.8653 H        1 ZINC000008437287    0.0600
32     H32    -3.7316   -6.5338   -0.8874 H        1 ZINC000008437287    0.0600
33     H33    -3.7146   -6.5434    0.8924 H        1 ZINC000008437287    0.0600
34     H34    -6.1874   -6.3604    0.9170 H        1 ZINC000008437287    0.0600
35     H35    -6.2044   -6.3508   -0.8628 H        1 ZINC000008437287    0.0600
36     H36    -5.1463   -8.5933   -0.8850 H        1 ZINC000008437287    0.0600
37     H37    -5.1293   -8.6028    0.8949 H        1 ZINC000008437287    0.0600
38     H38    -7.6020   -8.4198    0.9195 H        1 ZINC000008437287    0.0700
39     H39    -7.6190   -8.4102   -0.8604 H        1 ZINC000008437287    0.0700
40     H40    -6.5609  -10.6527   -0.8825 H        1 ZINC000008437287    0.0500
41     H41    -6.5439  -10.6622    0.8973 H        1 ZINC000008437287    0.0500
42     H42    -8.0248  -12.6131   -0.8791 H        1 ZINC000008437287    0.0600
43     H43    -8.0078  -12.6226    0.9008 H        1 ZINC000008437287    0.0600
44     H44   -10.0495  -13.7207    0.1139 H        1 ZINC000008437287    0.0600
45     H45   -10.4793  -12.1719    0.8786 H        1 ZINC000008437287    0.0500
46     H46   -11.5396  -12.4405   -1.2449 H        1 ZINC000008437287    0.3800
@<TRIPOS>BOND
1     1     2     1
2     1     17    1
3     1     18    1
4     1     19    1
5     2     3     1
6     2     20    1
7     2     21    1
8     3     4     1
9     3     22    1
10    3     23    1
11    4     5     1
12    4     24    1
13    4     25    1
14    5     6     1
15    5     26    1
16    5     27    1
17    6     7     1
18    6     28    1
19    6     29    1
20    7     8     1
21    7     30    1
22    7     31    1
23    8     9     1
24    8     32    1
25    8     33    1
26    9     10    1
27    9     34    1
28    9     35    1
29    10    11    1
30    10    36    1
31    10    37    1
32    11    12    1
33    11    38    1
34    11    39    1
35    12    13    1
36    12    40    1
37    12    41    1
38    13    14    1
39    14    15    1
40    14    42    1
41    14    43    1
42    15    16    1
43    15    44    1
44    15    45    1
45    16    46    1
@<TRIPOS>SUBSTRUCTURE
1   ZINC000008437287 1     RESIDUE    1   A     ZIN   1
