@<TRIPOS>MOLECULE
ZINC000022851765
67    67    1     0     0
SMALL
USER_CHARGES
@<TRIPOS>ATOM
1      C1      2.9908   -1.3615    2.7348 C.3      1 ZINC000022851765   -0.1500
2      C2      2.4510   -2.7663    2.4589 C.3      1 ZINC000022851765    0.0600
3      O3      1.2198   -2.6708    1.7398 O.3      1 ZINC000022851765   -0.3200
4      C4      0.6040   -3.8374    1.4132 C.ar     1 ZINC000022851765    0.1100
5      C5      1.1701   -5.0490    1.7823 C.ar     1 ZINC000022851765   -0.2100
6      C6      0.5419   -6.2335    1.4496 C.ar     1 ZINC000022851765   -0.0700
7      C7     -0.6498   -6.2122    0.7488 C.ar     1 ZINC000022851765   -0.0900
8      C8     -1.3327   -7.5059    0.3867 C.3      1 ZINC000022851765   -0.1100
9      C9     -2.3653   -7.8554    1.4602 C.3      1 ZINC000022851765    0.0500
10     H10    -1.9032   -7.7864    2.4450 H        1 ZINC000022851765    0.1300
11     C11    -2.8735   -9.2807    1.2341 C.3      1 ZINC000022851765    0.0100
12     N12    -3.9462   -9.5760    2.1933 N.3      1 ZINC000022851765   -0.5100
13     C13    -4.7040  -10.7666    1.7856 C.3      1 ZINC000022851765    0.0400
14     C14    -5.4860  -10.4602    0.5067 C.3      1 ZINC000022851765   -0.0400
15     N15    -6.3322  -11.6106    0.1627 N.4      1 ZINC000022851765   -0.3200
16     H16    -5.7608  -12.4392    0.0919 H        1 ZINC000022851765    0.3900
17     C17    -7.3460  -11.8028    1.2082 C.3      1 ZINC000022851765   -0.0900
18     C18    -8.2291  -10.5839    1.2818 C.2      1 ZINC000022851765    0.5100
19     O19    -7.9692   -9.6013    0.6084 O.co2    1 ZINC000022851765   -0.6700
20     O20    -9.2034  -10.5803    2.0146 O.co2    1 ZINC000022851765   -0.6600
21     C21    -6.9964  -11.3625   -1.1239 C.3      1 ZINC000022851765   -0.0900
22     C22    -7.7283  -12.6058   -1.5593 C.2      1 ZINC000022851765    0.5000
23     O23    -7.7111  -13.6013   -0.8556 O.co2    1 ZINC000022851765   -0.6900
24     O24    -8.3376  -12.6162   -2.6153 O.co2    1 ZINC000022851765   -0.6700
25     C25    -3.4092   -9.7334    3.5516 C.3      1 ZINC000022851765   -0.0200
26     C26    -4.5449   -9.7503    4.5420 C.2      1 ZINC000022851765    0.5000
27     O27    -5.6841   -9.5308    4.1670 O.co2    1 ZINC000022851765   -0.6600
28     O28    -4.3246   -9.9835    5.7182 O.co2    1 ZINC000022851765   -0.7100
29     N29    -3.4915   -6.9156    1.3808 N.4      1 ZINC000022851765   -0.3200
30     H30    -3.1503   -6.0033    1.1176 H        1 ZINC000022851765    0.4100
31     C31    -4.4532   -7.3875    0.3756 C.3      1 ZINC000022851765   -0.1100
32     C32    -4.0065   -6.9446   -0.9938 C.2      1 ZINC000022851765    0.4900
33     O33    -3.1073   -6.1291   -1.1076 O.co2    1 ZINC000022851765   -0.6700
34     O34    -4.5443   -7.4017   -1.9880 O.co2    1 ZINC000022851765   -0.6500
35     C35    -4.1528   -6.8321    2.6899 C.3      1 ZINC000022851765   -0.1100
36     C36    -3.2076   -6.2214    3.6921 C.2      1 ZINC000022851765    0.4900
37     O37    -2.1304   -5.7832    3.3258 O.co2    1 ZINC000022851765   -0.6800
38     O38    -3.5199   -6.1656    4.8693 O.co2    1 ZINC000022851765   -0.6600
39     C39    -1.2163   -5.0060    0.3802 C.ar     1 ZINC000022851765   -0.0700
40     C40    -0.5947   -3.8186    0.7151 C.ar     1 ZINC000022851765   -0.1500
41     H41     3.9299   -1.4343    3.2833 H        1 ZINC000022851765    0.0700
42     H42     3.1610   -0.8456    1.7898 H        1 ZINC000022851765    0.0600
43     H43     2.2660   -0.8037    3.3278 H        1 ZINC000022851765    0.0600
44     H44     3.1758   -3.3240    1.8659 H        1 ZINC000022851765    0.0500
45     H45     2.2808   -3.2822    3.4039 H        1 ZINC000022851765    0.0600
46     H46     2.1013   -5.0662    2.3291 H        1 ZINC000022851765    0.1100
47     H47     0.9822   -7.1769    1.7367 H        1 ZINC000022851765    0.1100
48     H48    -1.8322   -7.3960   -0.5759 H        1 ZINC000022851765    0.1300
49     H49    -0.5914   -8.3024    0.3224 H        1 ZINC000022851765    0.0800
50     H50    -3.2589   -9.3723    0.2186 H        1 ZINC000022851765    0.0900
51     H51    -2.0543   -9.9855    1.3768 H        1 ZINC000022851765    0.0600
52     H52    -4.0146  -11.5906    1.6013 H        1 ZINC000022851765    0.0300
53     H53    -5.3985  -11.0443    2.5784 H        1 ZINC000022851765    0.1200
54     H54    -6.1128   -9.5827    0.6656 H        1 ZINC000022851765    0.1800
55     H55    -4.7884  -10.2657   -0.3079 H        1 ZINC000022851765    0.1000
56     H56    -7.9523  -12.6768    0.9701 H        1 ZINC000022851765    0.1400
57     H57    -6.8534  -11.9531    2.1688 H        1 ZINC000022851765    0.1100
58     H58    -7.7063  -10.5427   -1.0141 H        1 ZINC000022851765    0.1600
59     H59    -6.2500  -11.0990   -1.8733 H        1 ZINC000022851765    0.1100
60     H60    -2.8559  -10.6703    3.6172 H        1 ZINC000022851765    0.0300
61     H61    -2.7425   -8.9012    3.7774 H        1 ZINC000022851765    0.0800
62     H62    -4.5061   -8.4758    0.4062 H        1 ZINC000022851765    0.1400
63     H63    -5.4370   -6.9698    0.5897 H        1 ZINC000022851765    0.1200
64     H64    -5.0452   -6.2117    2.6072 H        1 ZINC000022851765    0.1000
65     H65    -4.4348   -7.8323    3.0189 H        1 ZINC000022851765    0.1800
66     H66    -2.1474   -4.9920   -0.1669 H        1 ZINC000022851765    0.1800
67     H67    -1.0376   -2.8767    0.4270 H        1 ZINC000022851765    0.1200
@<TRIPOS>BOND
1     1     2     1
2     1     41    1
3     1     42    1
4     1     43    1
5     2     3     1
6     2     44    1
7     2     45    1
8     3     4     1
9     4     40    ar
10    4     5     ar
11    5     6     ar
12    5     46    1
13    6     7     ar
14    6     47    1
15    7     8     1
16    7     39    ar
17    8     9     1
18    8     48    1
19    8     49    1
20    9     10    1
21    9     11    1
22    9     29    1
23    11    12    1
24    11    50    1
25    11    51    1
26    12    13    1
27    12    25    1
28    13    14    1
29    13    52    1
30    13    53    1
31    14    15    1
32    14    54    1
33    14    55    1
34    15    16    1
35    15    17    1
36    15    21    1
37    17    18    1
38    17    56    1
39    17    57    1
40    18    19    ar
41    18    20    ar
42    21    22    1
43    21    58    1
44    21    59    1
45    22    23    ar
46    22    24    ar
47    25    26    1
48    25    60    1
49    25    61    1
50    26    27    ar
51    26    28    ar
52    29    30    1
53    29    31    1
54    29    35    1
55    31    32    1
56    31    62    1
57    31    63    1
58    32    33    ar
59    32    34    ar
60    35    36    1
61    35    64    1
62    35    65    1
63    36    37    ar
64    36    38    ar
65    39    40    ar
66    39    66    1
67    40    67    1
@<TRIPOS>SUBSTRUCTURE
1   ZINC000022851765 1     RESIDUE    1   A     ZIN   1
