@<TRIPOS>MOLECULE
ZINC000000895042
14   13    0    0    0
SMALL
USER_CHARGES
NO_NAME
@<TRIPOS>ATOM
1 N1       -0.0116     1.0048     0.0076 N.4    1 <0>      -0.6100
2 H2        0.0021    -0.0041     0.0020 H      1 <0>       0.4300
3 H3        0.9350     1.3541     0.0004 H      1 <0>       0.4400
4 H4       -0.4996     1.3391    -0.8099 H      1 <0>       0.4200
5 C5       -0.6992     1.4786     1.2162 C.3    1 <0>      -0.0300
6 H6       -0.7140     2.5685     1.2222 H      1 <0>       0.1500
7 C7       -2.1346     0.9490     1.2270 C.3    1 <0>      -0.0800
8 S8       -3.0119     1.5499    -0.2426 S.3    1 <0>      -0.2800
9 C9        0.0297     0.9794     2.4371 C.2    1 <0>       0.4900
10 O10      -0.2657     1.4060     3.5403 O.co2  1 <0>      -0.6300
11 O11       0.9147     0.1488     2.3216 O.co2  1 <0>      -0.6600
12 H12      -2.1198    -0.1409     1.2210 H      1 <0>       0.1000
13 H13      -2.6448     1.3005     2.1238 H      1 <0>       0.1300
14 H14      -4.2382     1.0155    -0.1024 H      1 <0>       0.1300
@<TRIPOS>BOND
1    1    2 1
2    1    3 1
3    1    4 1
4    1    5 1
5    5    6 1
6    5    7 1
7    5    9 1
8    7    8 1
9    7   12 1
10    7   13 1
11    8   14 1
12    9   10 ar
13    9   11 ar
