@<TRIPOS>MOLECULE
ZINC000003830961
28    28    1     0     0
SMALL
USER_CHARGES
@<TRIPOS>ATOM
1      C1      0.4676   -2.7273    4.0461 C.3      1 ZINC000003830961    0.0900
2      N2      0.6371   -3.2539    2.6897 N.am     1 ZINC000003830961   -0.7200
3      C3      0.2899   -2.5019    1.6265 C.2      1 ZINC000003830961    0.5700
4      O4     -0.1639   -1.3866    1.7931 O.2      1 ZINC000003830961   -0.5100
5      C5      0.4609   -3.0332    0.2582 C.ar     1 ZINC000003830961   -0.0600
6      C6     -0.5779   -3.7403   -0.3522 C.ar     1 ZINC000003830961   -0.0800
7      I7     -2.3785   -4.0468    0.6738 I        1 ZINC000003830961   -0.0200
8      C8     -0.4192   -4.2396   -1.6373 C.ar     1 ZINC000003830961    0.1900
9      N9     -1.4636   -4.9474   -2.2454 N.am     1 ZINC000003830961   -0.6900
10     C10    -2.3761   -4.2936   -2.9913 C.2      1 ZINC000003830961    0.5200
11     C11    -3.5628   -5.0350   -3.5508 C.3      1 ZINC000003830961   -0.1700
12     O12    -2.2422   -3.1086   -3.2122 O.2      1 ZINC000003830961   -0.5100
13     C13     0.7704   -4.0391   -2.3211 C.ar     1 ZINC000003830961   -0.0700
14     I14     1.0023   -4.7946   -4.2614 I        1 ZINC000003830961    0.0300
15     C15     1.8156   -3.3326   -1.7169 C.ar     1 ZINC000003830961   -0.0700
16     C16     3.0802   -3.1192   -2.4443 C.2      1 ZINC000003830961    0.5000
17     O17     3.2160   -3.5600   -3.5770 O.co2    1 ZINC000003830961   -0.6200
18     O18     3.9933   -2.5013   -1.9149 O.co2    1 ZINC000003830961   -0.6200
19     C19     1.6569   -2.8244   -0.4269 C.ar     1 ZINC000003830961   -0.0600
20     I20     3.2178   -1.7647    0.4839 I        1 ZINC000003830961    0.0300
21     H21     1.0608   -1.8200    4.1604 H        1 ZINC000003830961    0.0600
22     H22    -0.5840   -2.4979    4.2180 H        1 ZINC000003830961    0.0600
23     H23     0.7999   -3.4721    4.7693 H        1 ZINC000003830961    0.0800
24     H24     0.9993   -4.1439    2.5567 H        1 ZINC000003830961    0.4000
25     H25    -1.5301   -5.9082   -2.1298 H        1 ZINC000003830961    0.4100
26     H26    -4.3857   -4.9949   -2.8371 H        1 ZINC000003830961    0.1000
27     H27    -3.8718   -4.5719   -4.4879 H        1 ZINC000003830961    0.1000
28     H28    -3.2894   -6.0745   -3.7320 H        1 ZINC000003830961    0.0800
@<TRIPOS>BOND
1     1     2     1
2     1     21    1
3     1     22    1
4     1     23    1
5     2     3     am
6     2     24    1
7     3     4     2
8     3     5     1
9     5     19    ar
10    5     6     ar
11    6     7     1
12    6     8     ar
13    8     9     1
14    8     13    ar
15    9     10    am
16    9     25    1
17    10    11    1
18    10    12    2
19    11    26    1
20    11    27    1
21    11    28    1
22    13    14    1
23    13    15    ar
24    15    16    1
25    15    19    ar
26    16    17    ar
27    16    18    ar
28    19    20    1
@<TRIPOS>SUBSTRUCTURE
1   ZINC000003830961 1     RESIDUE    1   A     ZIN   1
