@<TRIPOS>MOLECULE
ZINC000003882036
55    58    1     0     0
SMALL
USER_CHARGES
@<TRIPOS>ATOM
1      C1     -0.7027    1.6018   -0.2069 C.3      1 ZINC000003882036   -0.1700
2      C2     -0.8671    0.0807   -0.2059 C.3      1 ZINC000003882036   -0.0400
3      C3     -2.2155   -0.2898    0.3814 C.3      1 ZINC000003882036   -0.1300
4      C4     -2.3063    0.3785    1.7624 C.3      1 ZINC000003882036    0.0900
5      H5     -3.2523    0.1035    2.2289 H        1 ZINC000003882036    0.0700
6      O6     -2.2633    1.7972    1.5974 O.3      1 ZINC000003882036   -0.5400
7      C7     -1.1600   -0.0498    2.6725 C.3      1 ZINC000003882036    0.1600
8      F8     -1.2839   -1.4137    2.9585 F        1 ZINC000003882036   -0.1900
9      C9      0.2090    0.1871    2.0153 C.3      1 ZINC000003882036   -0.1000
10     H10     0.3495    1.2523    1.8319 H        1 ZINC000003882036    0.1100
11     C11     1.3162   -0.3281    2.9366 C.3      1 ZINC000003882036   -0.1200
12     C12     1.3208    0.4772    4.2401 C.3      1 ZINC000003882036   -0.0900
13     C13    -0.0696    0.4063    4.8433 C.2      1 ZINC000003882036   -0.0300
14     C14    -0.2043    0.0346    6.1084 C.2      1 ZINC000003882036   -0.2200
15     C15    -1.5377   -0.0650    6.7217 C.2      1 ZINC000003882036    0.4100
16     O16    -1.6631   -0.3711    7.8927 O.2      1 ZINC000003882036   -0.4600
17     C17    -2.7173    0.2149    5.8855 C.2      1 ZINC000003882036   -0.2100
18     C18    -2.5597    0.5899    4.6259 C.2      1 ZINC000003882036   -0.0700
19     C19    -1.2258    0.7472    3.9792 C.3      1 ZINC000003882036   -0.0300
20     C20    -1.0613    2.2189    3.5945 C.3      1 ZINC000003882036   -0.1400
21     C21     0.2184   -0.5651    0.6967 C.3      1 ZINC000003882036   -0.0800
22     H22    -0.0004   -1.6203    0.8606 H        1 ZINC000003882036    0.0900
23     C23     1.4866   -0.4080   -0.1499 C.3      1 ZINC000003882036   -0.1400
24     C24     0.9918   -0.7427   -1.5836 C.3      1 ZINC000003882036    0.0800
25     H25     1.4932   -0.1042   -2.3109 H        1 ZINC000003882036    0.0800
26     O26     1.2449   -2.1172   -1.8814 O.3      1 ZINC000003882036   -0.5600
27     C27    -0.5485   -0.4744   -1.5903 C.3      1 ZINC000003882036    0.1200
28     O28    -1.2622   -1.6926   -1.8109 O.3      1 ZINC000003882036   -0.5200
29     C29    -0.8979    0.5361   -2.6523 C.2      1 ZINC000003882036    0.3400
30     O30    -0.0668    1.3265   -3.0303 O.2      1 ZINC000003882036   -0.4100
31     C31    -2.2842    0.5602   -3.2426 C.3      1 ZINC000003882036    0.0300
32     O32    -2.3674    1.5985   -4.2209 O.3      1 ZINC000003882036   -0.5600
33     H33     0.1837    1.8711   -0.7813 H        1 ZINC000003882036    0.0600
34     H34    -1.5817    2.0620   -0.6583 H        1 ZINC000003882036    0.0600
35     H35    -0.5930    1.9562    0.8180 H        1 ZINC000003882036    0.1100
36     H36    -3.0146    0.0777   -0.2624 H        1 ZINC000003882036    0.0800
37     H37    -2.2901   -1.3721    0.4867 H        1 ZINC000003882036    0.0900
38     H38    -2.9820    2.1522    1.0565 H        1 ZINC000003882036    0.3800
39     H39     1.1407   -1.3802    3.1611 H        1 ZINC000003882036    0.0800
40     H40     2.2805   -0.2200    2.4402 H        1 ZINC000003882036    0.0800
41     H41     2.0452    0.0504    4.9338 H        1 ZINC000003882036    0.0900
42     H42     1.5785    1.5153    4.0304 H        1 ZINC000003882036    0.0900
43     H43     0.6728   -0.1978    6.6942 H        1 ZINC000003882036    0.1400
44     H44    -3.7097    0.1139    6.2994 H        1 ZINC000003882036    0.1400
45     H45    -3.4460    0.7810    4.0391 H        1 ZINC000003882036    0.1300
46     H46    -0.7450    2.7895    4.4677 H        1 ZINC000003882036    0.0500
47     H47    -0.3093    2.3077    2.8105 H        1 ZINC000003882036    0.0800
48     H48    -2.0125    2.6080    3.2313 H        1 ZINC000003882036    0.1000
49     H49     1.8594    0.6151   -0.0996 H        1 ZINC000003882036    0.0800
50     H50     2.2528   -1.1148    0.1685 H        1 ZINC000003882036    0.0800
51     H51     2.1816   -2.3571   -1.8652 H        1 ZINC000003882036    0.3900
52     H52    -1.0682   -2.1140   -2.6594 H        1 ZINC000003882036    0.3900
53     H53    -2.4955   -0.4001   -3.7132 H        1 ZINC000003882036    0.0800
54     H54    -3.0122    0.7458   -2.4529 H        1 ZINC000003882036    0.0800
55     H55    -3.2341    1.6724   -4.6433 H        1 ZINC000003882036    0.3900
@<TRIPOS>BOND
1     1     2     1
2     1     33    1
3     1     34    1
4     1     35    1
5     2     21    1
6     2     27    1
7     2     3     1
8     3     4     1
9     3     36    1
10    3     37    1
11    4     5     1
12    4     6     1
13    4     7     1
14    6     38    1
15    7     19    1
16    7     8     1
17    7     9     1
18    9     10    1
19    9     11    1
20    9     21    1
21    11    12    1
22    11    39    1
23    11    40    1
24    12    13    1
25    12    41    1
26    12    42    1
27    13    19    1
28    13    14    2
29    14    15    1
30    14    43    1
31    15    16    2
32    15    17    1
33    17    18    2
34    17    44    1
35    18    19    1
36    18    45    1
37    19    20    1
38    20    46    1
39    20    47    1
40    20    48    1
41    21    22    1
42    21    23    1
43    23    24    1
44    23    49    1
45    23    50    1
46    24    25    1
47    24    26    1
48    24    27    1
49    26    51    1
50    27    28    1
51    27    29    1
52    28    52    1
53    29    30    2
54    29    31    1
55    31    32    1
56    31    53    1
57    31    54    1
58    32    55    1
@<TRIPOS>SUBSTRUCTURE
1   ZINC000003882036 1     RESIDUE    1   A     ZIN   1
