@<TRIPOS>MOLECULE
ZINC000005733652
34   36    0    0    0
SMALL
USER_CHARGES
NO_NAME
@<TRIPOS>ATOM
1 C1       -0.0173     1.4248     0.0099 C.3    1 <0>       0.0200
2 O2        0.0021    -0.0041     0.0020 O.3    1 <0>      -0.3000
3 C3        0.6056    -0.6069    -1.0553 C.ar   1 <0>       0.1300
4 C4        1.1720     0.1638    -2.0607 C.ar   1 <0>      -0.2000
5 C5        1.7852    -0.4428    -3.1361 C.ar   1 <0>      -0.0400
6 C6        1.8378    -1.8367    -3.2151 C.ar   1 <0>      -0.1000
7 C7        2.4939    -2.4878    -4.3647 C.2    1 <0>       0.2200
8 C8        3.0450    -1.7063    -5.3320 C.2    1 <0>      -0.3200
9 C9        3.6786    -2.3130    -6.4423 C.2    1 <0>       0.4200
10 O10       4.1839    -1.6428    -7.3283 O.2    1 <0>      -0.4600
11 C11       3.7051    -3.7849    -6.4866 C.ar   1 <0>      -0.2700
12 C12       4.3110    -4.4695    -7.5471 C.ar   1 <0>       0.2200
13 O13       4.8905    -3.7811    -8.5631 O.3    1 <0>      -0.4700
14 C14       4.3150    -5.8524    -7.5513 C.ar   1 <0>      -0.2000
15 C15       3.7212    -6.5557    -6.5092 C.ar   1 <0>       0.1900
16 O16       3.7310    -7.9131    -6.5228 O.3    1 <0>      -0.4900
17 C17       3.1194    -5.8840    -5.4559 C.ar   1 <0>      -0.1800
18 C18       3.1054    -4.4984    -5.4342 C.ar   1 <0>       0.1800
19 O19       2.5290    -3.8290    -4.4134 O.3    1 <0>      -0.2200
20 C20       1.2675    -2.6130    -2.2019 C.ar   1 <0>      -0.0700
21 C21       0.6594    -1.9984    -1.1248 C.ar   1 <0>       0.0700
22 O22       0.1040    -2.7505    -0.1372 O.3    1 <0>      -0.4800
23 H23       1.0053     1.8021     0.0021 H      1 <0>       0.0600
24 H24      -0.5445     1.7859    -0.8732 H      1 <0>       0.0600
25 H25      -0.5275     1.7763     0.9067 H      1 <0>       0.1100
26 H26       1.1320     1.2414    -2.0008 H      1 <0>       0.1500
27 H27       2.2246     0.1593    -3.9176 H      1 <0>       0.1400
28 H28       2.9989    -0.6301    -5.2535 H      1 <0>       0.1600
29 H29       5.8256    -3.5811    -8.4195 H      1 <0>       0.4000
30 H30       4.7801    -6.3874    -8.3660 H      1 <0>       0.1500
31 H31       4.5011    -8.3052    -6.0888 H      1 <0>       0.4000
32 H32       2.6610    -6.4410    -4.6522 H      1 <0>       0.1500
33 H33       1.3060    -3.6908    -2.2592 H      1 <0>       0.1500
34 H34       0.7130    -2.9667     0.5822 H      1 <0>       0.3900
@<TRIPOS>BOND
1    1    2 1
2    1   23 1
3    1   24 1
4    1   25 1
5    2    3 1
6    3   21 ar
7    3    4 ar
8    4    5 ar
9    4   26 1
10    5    6 ar
11    5   27 1
12    6    7 1
13    6   20 ar
14    7   19 1
15    7    8 2
16    8    9 1
17    8   28 1
18    9   10 2
19    9   11 1
20   11   18 ar
21   11   12 ar
22   12   13 1
23   12   14 ar
24   13   29 1
25   14   15 ar
26   14   30 1
27   15   16 1
28   15   17 ar
29   16   31 1
30   17   18 ar
31   17   32 1
32   18   19 1
33   20   21 ar
34   20   33 1
35   21   22 1
36   22   34 1
