@<TRIPOS>MOLECULE
ZINC000100001918
48   50    0    0    0
SMALL
USER_CHARGES
NO_NAME
@<TRIPOS>ATOM
1 C1       -0.1892     1.5386    -1.4319 C.3    1 <0>       0.0300
2 O2       -0.2593     0.1182    -1.5720 O.3    1 <0>      -0.3500
3 C3        0.7241    -0.6036    -0.9950 C.2    1 <0>       0.5300
4 O4        1.6168    -0.0406    -0.3892 O.2    1 <0>      -0.4900
5 C5        0.7173    -2.0143    -1.0942 C.2    1 <0>      -0.2300
6 C6        1.1717    -2.5967    -2.2173 C.2    1 <0>       0.1900
7 C7        1.6704    -1.7386    -3.3513 C.3    1 <0>      -0.1300
8 N8        1.1873    -3.9590    -2.3432 N.pl3  1 <0>      -0.6300
9 C9        1.0901    -4.7557    -1.2351 C.2    1 <0>       0.2400
10 C10       1.5018    -6.2029    -1.3205 C.3    1 <0>      -0.1200
11 C11       0.6315    -4.2635    -0.0713 C.2    1 <0>      -0.2600
12 C12       0.5518    -5.1137     1.0559 C.2    1 <0>       0.5200
13 O13       0.8964    -6.2773     0.9659 O.2    1 <0>      -0.5200
14 O14       0.0935    -4.6347     2.2313 O.3    1 <0>      -0.3400
15 C15       0.0399    -5.5492     3.3280 C.3    1 <0>       0.0800
16 C16       0.2404    -4.7860     4.6388 C.3    1 <0>      -0.1500
17 C17      -1.3228    -6.2447     3.3460 C.3    1 <0>      -0.1700
18 C18       0.2080    -2.8298     0.0603 C.3    1 <0>       0.0900
19 H19       0.5982    -2.4245     0.9939 H      1 <0>       0.1000
20 C20      -1.2971    -2.7566     0.0784 C.ar   1 <0>      -0.0200
21 C21      -2.0174    -3.2205    -0.9727 C.ar   1 <0>      -0.0800
22 C22      -3.4170    -3.1695    -0.9921 C.ar   1 <0>      -0.0800
23 C23      -4.1305    -2.6535     0.0391 C.ar   1 <0>      -0.0700
24 C24      -3.4518    -2.1519     1.1666 C.ar   1 <0>       0.0200
25 N25      -3.7374    -1.5973     2.3187 N.2    1 <0>      -0.3500
26 O26      -2.7046    -1.3618     2.9131 O.3    1 <0>       0.3800
27 N27      -1.6755    -1.6723     2.3474 N.2    1 <0>      -0.3300
28 C28      -1.9688    -2.2112     1.1897 C.ar   1 <0>       0.0300
29 H29      -0.2152     1.8011    -0.3743 H      1 <0>       0.0600
30 H30       0.7386     1.9019    -1.8738 H      1 <0>       0.0600
31 H31      -1.0376     1.9962    -1.9409 H      1 <0>       0.1000
32 H32       2.7441    -1.5841    -3.2450 H      1 <0>       0.0900
33 H33       1.4670    -2.2358    -4.2998 H      1 <0>       0.0900
34 H34       1.1607    -0.7754    -3.3294 H      1 <0>       0.0900
35 H35       1.2674    -4.3618    -3.2219 H      1 <0>       0.4200
36 H36       1.8444    -6.4241    -2.3313 H      1 <0>       0.0600
37 H37       2.3091    -6.3933    -0.6133 H      1 <0>       0.1100
38 H38       0.6496    -6.8379    -1.0786 H      1 <0>       0.1000
39 H39       0.8271    -6.2952     3.2179 H      1 <0>       0.0800
40 H40      -0.5468    -4.0401     4.7490 H      1 <0>       0.0700
41 H41       0.1995    -5.4837     5.4754 H      1 <0>       0.0800
42 H42       1.2112    -4.2906     4.6260 H      1 <0>       0.0600
43 H43      -2.1099    -5.4988     3.4562 H      1 <0>       0.0600
44 H44      -1.4656    -6.7884     2.4122 H      1 <0>       0.0600
45 H45      -1.3636    -6.9423     4.1825 H      1 <0>       0.0700
46 H46      -1.4965    -3.6413    -1.8200 H      1 <0>       0.1300
47 H47      -3.9434    -3.5522    -1.8540 H      1 <0>       0.1400
48 H48      -5.2094    -2.6270    -0.0040 H      1 <0>       0.1500
@<TRIPOS>BOND
1    1    2 1
2    1   29 1
3    1   30 1
4    1   31 1
5    2    3 1
6    3    4 2
7    3    5 1
8    5   18 1
9    5    6 2
10    6    7 1
11    6    8 1
12    7   32 1
13    7   33 1
14    7   34 1
15    8    9 1
16    8   35 1
17    9   10 1
18    9   11 2
19   10   36 1
20   10   37 1
21   10   38 1
22   11   12 1
23   11   18 1
24   12   13 2
25   12   14 1
26   14   15 1
27   15   16 1
28   15   17 1
29   15   39 1
30   16   40 1
31   16   41 1
32   16   42 1
33   17   43 1
34   17   44 1
35   17   45 1
36   18   19 1
37   18   20 1
38   20   28 ar
39   20   21 ar
40   21   22 ar
41   21   46 1
42   22   23 ar
43   22   47 1
44   23   24 ar
45   23   48 1
46   24   28 ar
47   24   25 2
48   25   26 1
49   26   27 1
50   27   28 2
