@<TRIPOS>MOLECULE
ZINC000000000490
19   19    0    0    0
SMALL
USER_CHARGES
NO_NAME
@<TRIPOS>ATOM
1 C1       -0.0176     1.4478     0.0100 C.3    1 <0>       0.0400
2 O2        0.0021    -0.0041     0.0020 O.3    1 <0>      -0.3600
3 C3        0.6205    -0.6132     1.0327 C.2    1 <0>       0.5100
4 O4        1.1294     0.0507     1.9140 O.2    1 <0>      -0.4900
5 C5        0.6797    -2.0849     1.0910 C.ar   1 <0>      -0.1600
6 C6        0.1009    -2.8522     0.0769 C.ar   1 <0>      -0.0500
7 C7        0.1602    -4.2277     0.1373 C.ar   1 <0>      -0.1400
8 C8        0.7909    -4.8542     1.1996 C.ar   1 <0>      -0.0700
9 C9        1.3672    -4.1082     2.2088 C.ar   1 <0>      -0.1600
10 C10       1.3223    -2.7231     2.1617 C.ar   1 <0>       0.1700
11 O11       1.8878    -1.9890     3.1523 O.3    1 <0>      -0.4800
12 H12       1.0050     1.8251     0.0023 H      1 <0>       0.0600
13 H13      -0.5448     1.8089    -0.8731 H      1 <0>       0.1000
14 H14      -0.5278     1.7993     0.9068 H      1 <0>       0.0600
15 H15      -0.3925    -2.3681    -0.7529 H      1 <0>       0.1400
16 H16      -0.2874    -4.8200    -0.6470 H      1 <0>       0.1400
17 H17       0.8319    -5.9327     1.2390 H      1 <0>       0.1400
18 H18       1.8571    -4.6042     3.0337 H      1 <0>       0.1400
19 H19       2.8158    -1.7664     2.9961 H      1 <0>       0.4000
@<TRIPOS>BOND
1    1    2 1
2    1   12 1
3    1   13 1
4    1   14 1
5    2    3 1
6    3    4 2
7    3    5 1
8    5   10 ar
9    5    6 ar
10    6    7 ar
11    6   15 1
12    7    8 ar
13    7   16 1
14    8    9 ar
15    8   17 1
16    9   10 ar
17    9   18 1
18   10   11 1
19   11   19 1
