@<TRIPOS>MOLECULE
ZINC000004212945
70    73    1     0     0
SMALL
USER_CHARGES
@<TRIPOS>ATOM
1      C1     -0.8619    2.4569   -2.9098 C.3      1 ZINC000004212945   -0.1500
2      C2     -0.9422    0.9813   -2.5137 C.3      1 ZINC000004212945   -0.1200
3      C3      0.0039    0.1642   -3.3959 C.3      1 ZINC000004212945   -0.1200
4      C4     -0.0753   -1.2893   -3.0057 C.2      1 ZINC000004212945    0.4500
5      O5     -0.8127   -1.6361   -2.1136 O.2      1 ZINC000004212945   -0.4900
6      O6      0.6735   -2.1987   -3.6493 O.3      1 ZINC000004212945   -0.3400
7      C7      0.6302   -3.5612   -3.1493 C.3      1 ZINC000004212945    0.1000
8      C8     -0.7590   -4.1265   -3.2959 C.2      1 ZINC000004212945    0.3600
9      O9     -1.1644   -4.9447   -2.5057 O.2      1 ZINC000004212945   -0.4000
10     C10    -1.6423   -3.6706   -4.4286 C.3      1 ZINC000004212945    0.0200
11     O11    -2.8713   -4.4438   -4.4253 O.3      1 ZINC000004212945   -0.3400
12     C12    -3.7728   -4.1594   -5.3783 C.2      1 ZINC000004212945    0.4600
13     C13    -5.0720   -4.9207   -5.4378 C.3      1 ZINC000004212945   -0.1500
14     O14    -3.5425   -3.2931   -6.1885 O.2      1 ZINC000004212945   -0.5100
15     C15     1.0750   -3.6029   -1.6661 C.3      1 ZINC000004212945   -0.1300
16     C16     2.3869   -4.4332   -1.6253 C.3      1 ZINC000004212945   -0.1100
17     C17     2.9299   -4.2871   -3.0510 C.3      1 ZINC000004212945   -0.0800
18     H18     3.3685   -3.2990   -3.1904 H        1 ZINC000004212945    0.0900
19     C19     3.9009   -5.3634   -3.5016 C.3      1 ZINC000004212945   -0.1000
20     H20     3.4267   -6.3419   -3.4253 H        1 ZINC000004212945    0.1200
21     C21     5.1567   -5.3291   -2.6288 C.3      1 ZINC000004212945   -0.1400
22     C22     6.1176   -6.4406   -3.0629 C.3      1 ZINC000004212945    0.1300
23     H23     5.6610   -7.4136   -2.8815 H        1 ZINC000004212945    0.1100
24     F24     7.3136   -6.3386   -2.3443 F        1 ZINC000004212945   -0.2000
25     C25     6.3934   -6.2724   -4.5453 C.2      1 ZINC000004212945   -0.0800
26     C26     7.6506   -6.2380   -4.9649 C.2      1 ZINC000004212945   -0.1900
27     C27     7.9581   -6.0554   -6.3919 C.2      1 ZINC000004212945    0.4100
28     O28     9.1092   -6.0631   -6.7863 O.2      1 ZINC000004212945   -0.4500
29     C29     6.8411   -5.8635   -7.3322 C.2      1 ZINC000004212945   -0.2100
30     C30     5.5935   -5.9083   -6.8919 C.2      1 ZINC000004212945   -0.0700
31     C31     5.2187   -6.1551   -5.4708 C.3      1 ZINC000004212945   -0.0200
32     C32     4.4449   -7.4737   -5.4129 C.3      1 ZINC000004212945   -0.1400
33     C33     4.2591   -5.0736   -4.9679 C.3      1 ZINC000004212945    0.1600
34     F34     4.8947   -3.8289   -5.0312 F        1 ZINC000004212945   -0.1900
35     C35     3.0277   -5.0333   -5.8681 C.3      1 ZINC000004212945    0.0900
36     H36     3.3293   -4.7263   -6.8696 H        1 ZINC000004212945    0.0800
37     O37     2.4556   -6.3411   -5.9343 O.3      1 ZINC000004212945   -0.5400
38     C38     1.9703   -4.0512   -5.3398 C.3      1 ZINC000004212945   -0.1300
39     C39     1.6361   -4.4306   -3.8967 C.3      1 ZINC000004212945   -0.0500
40     C40     1.2161   -5.9003   -3.8312 C.3      1 ZINC000004212945   -0.1700
41     H41     0.1592    2.8140   -2.7756 H        1 ZINC000004212945    0.0600
42     H42    -1.1517    2.5690   -3.9545 H        1 ZINC000004212945    0.0600
43     H43    -1.5359    3.0390   -2.2813 H        1 ZINC000004212945    0.0600
44     H44    -0.6524    0.8692   -1.4689 H        1 ZINC000004212945    0.0700
45     H45    -1.9633    0.6241   -2.6478 H        1 ZINC000004212945    0.0700
46     H46    -0.2860    0.2762   -4.4406 H        1 ZINC000004212945    0.1100
47     H47     1.0249    0.5213   -3.2617 H        1 ZINC000004212945    0.1100
48     H48    -1.8776   -2.6137   -4.3032 H        1 ZINC000004212945    0.1000
49     H49    -1.1233   -3.8174   -5.3758 H        1 ZINC000004212945    0.1000
50     H50    -5.0999   -5.6553   -4.6331 H        1 ZINC000004212945    0.0900
51     H51    -5.9051   -4.2268   -5.3254 H        1 ZINC000004212945    0.1100
52     H52    -5.1508   -5.4305   -6.3980 H        1 ZINC000004212945    0.1100
53     H53     1.2605   -2.5922   -1.3025 H        1 ZINC000004212945    0.0800
54     H54     0.3084   -4.0845   -1.0590 H        1 ZINC000004212945    0.1000
55     H55     3.0861   -4.0144   -0.9015 H        1 ZINC000004212945    0.0800
56     H56     2.1751   -5.4781   -1.3985 H        1 ZINC000004212945    0.0800
57     H57     5.6478   -4.3621   -2.7376 H        1 ZINC000004212945    0.0900
58     H58     4.8776   -5.4780   -1.5857 H        1 ZINC000004212945    0.1000
59     H59     8.4558   -6.3446   -4.2530 H        1 ZINC000004212945    0.1500
60     H60     7.0394   -5.6861   -8.3789 H        1 ZINC000004212945    0.1400
61     H61     4.7982   -5.7568   -7.6067 H        1 ZINC000004212945    0.1300
62     H62     5.1474   -8.3070   -5.4009 H        1 ZINC000004212945    0.0600
63     H63     3.8362   -7.4984   -4.5090 H        1 ZINC000004212945    0.0800
64     H64     3.7997   -7.5550   -6.2877 H        1 ZINC000004212945    0.1000
65     H65     1.6660   -6.3973   -6.4897 H        1 ZINC000004212945    0.3800
66     H66     2.3771   -3.0400   -5.3254 H        1 ZINC000004212945    0.0900
67     H67     1.0827   -4.0861   -5.9716 H        1 ZINC000004212945    0.0800
68     H68     2.0642   -6.5327   -4.0940 H        1 ZINC000004212945    0.1100
69     H69     0.8845   -6.1388   -2.8206 H        1 ZINC000004212945    0.0600
70     H70     0.4004   -6.0767   -4.5324 H        1 ZINC000004212945    0.0600
@<TRIPOS>BOND
1     1     2     1
2     1     41    1
3     1     42    1
4     1     43    1
5     2     3     1
6     2     44    1
7     2     45    1
8     3     4     1
9     3     46    1
10    3     47    1
11    4     5     2
12    4     6     1
13    6     7     1
14    7     39    1
15    7     8     1
16    7     15    1
17    8     9     2
18    8     10    1
19    10    11    1
20    10    48    1
21    10    49    1
22    11    12    1
23    12    13    1
24    12    14    2
25    13    50    1
26    13    51    1
27    13    52    1
28    15    16    1
29    15    53    1
30    15    54    1
31    16    17    1
32    16    55    1
33    16    56    1
34    17    18    1
35    17    39    1
36    17    19    1
37    19    20    1
38    19    33    1
39    19    21    1
40    21    22    1
41    21    57    1
42    21    58    1
43    22    23    1
44    22    24    1
45    22    25    1
46    25    31    1
47    25    26    2
48    26    27    1
49    26    59    1
50    27    28    2
51    27    29    1
52    29    30    2
53    29    60    1
54    30    31    1
55    30    61    1
56    31    32    1
57    31    33    1
58    32    62    1
59    32    63    1
60    32    64    1
61    33    34    1
62    33    35    1
63    35    36    1
64    35    37    1
65    35    38    1
66    37    65    1
67    38    39    1
68    38    66    1
69    38    67    1
70    39    40    1
71    40    68    1
72    40    69    1
73    40    70    1
@<TRIPOS>SUBSTRUCTURE
1   ZINC000004212945 1     RESIDUE    1   A     ZIN   1
