@<TRIPOS>MOLECULE
ZINC000001533877
39    38    1     0     0
SMALL
USER_CHARGES
@<TRIPOS>ATOM
1      C1     -0.0187    1.5258    0.0104 C.3      1 ZINC000001533877   -0.1500
2      C2      0.0021   -0.0041    0.0020 C.3      1 ZINC000001533877   -0.1200
3      C3      0.7182   -0.4975   -1.2568 C.3      1 ZINC000001533877   -0.1200
4      C4      0.7390   -2.0273   -1.2652 C.3      1 ZINC000001533877   -0.1500
5      C5      1.4551   -2.5207   -2.5240 C.3      1 ZINC000001533877   -0.0100
6      N6      1.4750   -3.9896   -2.5321 N.4      1 ZINC000001533877   -0.3800
7      H7      1.8898   -4.3250   -1.6756 H        1 ZINC000001533877    0.4200
8      C8      0.1010   -4.4973   -2.6424 C.3      1 ZINC000001533877   -0.0500
9      C9      2.2651   -4.4623   -3.6767 C.3      1 ZINC000001533877   -0.0400
10     C10     2.3905   -5.9859   -3.6155 C.3      1 ZINC000001533877   -0.1100
11     C11     3.2134   -6.4783   -4.8077 C.3      1 ZINC000001533877   -1.0200
12     O12     2.5629   -6.1023   -6.0233 O.3      1 ZINC000001533877   -0.5200
13     P13     4.8743   -5.7291   -4.7505 P.3      1 ZINC000001533877    2.2400
14     O14     4.7548   -4.1787   -4.9414 O.co2    1 ZINC000001533877   -1.2000
15     O15     5.5377   -6.0350   -3.3646 O.co2    1 ZINC000001533877   -1.1700
16     O16     5.7579   -6.3297   -5.8963 O.co2    1 ZINC000001533877   -1.1600
17     P17     3.3628   -8.2937   -4.7347 P.3      1 ZINC000001533877    2.2100
18     O18     4.0759   -8.7058   -3.4021 O.co2    1 ZINC000001533877   -1.1700
19     O19     1.9354   -8.9375   -4.7839 O.co2    1 ZINC000001533877   -1.2100
20     O20     4.2054   -8.7978   -5.9555 O.co2    1 ZINC000001533877   -1.1600
21     H21     1.0039    1.9031    0.0027 H        1 ZINC000001533877    0.0600
22     H22    -0.5459    1.8868   -0.8726 H        1 ZINC000001533877    0.0500
23     H23    -0.5289    1.8773    0.9072 H        1 ZINC000001533877    0.0500
24     H24     0.5293   -0.3651    0.8851 H        1 ZINC000001533877    0.0600
25     H25    -1.0205   -0.3814    0.0098 H        1 ZINC000001533877    0.0600
26     H26     0.1910   -0.1364   -2.1398 H        1 ZINC000001533877    0.0700
27     H27     1.7408   -0.1202   -1.2645 H        1 ZINC000001533877    0.0700
28     H28     1.2661   -2.3884   -0.3821 H        1 ZINC000001533877    0.0800
29     H29    -0.2836   -2.4046   -1.2575 H        1 ZINC000001533877    0.0800
30     H30     0.9279   -2.1597   -3.4071 H        1 ZINC000001533877    0.1100
31     H31     2.4777   -2.1435   -2.5317 H        1 ZINC000001533877    0.1300
32     H32    -0.3471   -4.1349   -3.5676 H        1 ZINC000001533877    0.1100
33     H33     0.1158   -5.5872   -2.6484 H        1 ZINC000001533877    0.1300
34     H34    -0.4853   -4.1466   -1.7931 H        1 ZINC000001533877    0.1000
35     H35     1.7689   -4.1755   -4.6039 H        1 ZINC000001533877    0.1100
36     H36     3.2582   -4.0143   -3.6425 H        1 ZINC000001533877    0.1800
37     H37     2.8867   -6.2727   -2.6883 H        1 ZINC000001533877    0.0800
38     H38     1.3974   -6.4339   -3.6497 H        1 ZINC000001533877    0.0400
39     H39     1.6723   -6.4661   -6.1216 H        1 ZINC000001533877    0.3000
@<TRIPOS>BOND
1     1     2     1
2     1     21    1
3     1     22    1
4     1     23    1
5     2     3     1
6     2     24    1
7     2     25    1
8     3     4     1
9     3     26    1
10    3     27    1
11    4     5     1
12    4     28    1
13    4     29    1
14    5     6     1
15    5     30    1
16    5     31    1
17    6     7     1
18    6     8     1
19    6     9     1
20    8     32    1
21    8     33    1
22    8     34    1
23    9     10    1
24    9     35    1
25    9     36    1
26    10    11    1
27    10    37    1
28    10    38    1
29    11    12    1
30    11    13    1
31    11    17    1
32    12    39    1
33    13    14    ar
34    13    15    ar
35    13    16    ar
36    17    18    ar
37    17    19    ar
38    17    20    ar
@<TRIPOS>SUBSTRUCTURE
1   ZINC000001533877 1     RESIDUE    1   A     ZIN   1
