@<TRIPOS>MOLECULE
ZINC000000020248
46   48    0    0    0
SMALL
USER_CHARGES
NO_NAME
@<TRIPOS>ATOM
1 C1       -5.6600     1.3621     0.4574 C.3    1 <0>      -0.0500
2 N2       -5.6471    -0.0877     0.2208 N.4    1 <0>      -0.3900
3 H3       -6.1040    -0.5577     0.9878 H      1 <0>       0.4300
4 C4       -6.3579    -0.3861    -1.0297 C.3    1 <0>      -0.0500
5 C5       -4.2581    -0.5547     0.1179 C.3    1 <0>      -0.0100
6 C6       -4.2405    -2.0797    -0.0036 C.3    1 <0>      -0.1700
7 C7       -2.7938    -2.5661    -0.1108 C.3    1 <0>       0.1300
8 N8       -2.7704    -4.0309    -0.1190 N.pl3  1 <0>      -0.5900
9 C9       -2.7303    -4.6832    -1.3447 C.ar   1 <0>       0.1900
10 C10      -1.8315    -4.1659    -2.2847 C.ar   1 <0>      -0.1600
11 C11      -1.6870    -4.7522    -3.5215 C.ar   1 <0>      -0.0900
12 C12      -2.4405    -5.8692    -3.8332 C.ar   1 <0>      -0.1300
13 C13      -3.3334    -6.3723    -2.9151 C.ar   1 <0>      -0.1000
14 C14      -3.5033    -5.7781    -1.6615 C.ar   1 <0>      -0.1100
15 C15      -4.5723    -6.4156    -0.8104 C.3    1 <0>      -0.0700
16 C16      -4.9933    -5.5974     0.3851 C.3    1 <0>      -0.0700
17 C17      -3.8929    -5.4564     1.3939 C.ar   1 <0>      -0.1000
18 C18      -3.9881    -6.0933     2.6203 C.ar   1 <0>      -0.0900
19 C19      -2.9572    -5.9707     3.5349 C.ar   1 <0>      -0.1100
20 C20      -1.8353    -5.2198     3.2302 C.ar   1 <0>      -0.0200
21 Cl21     -0.5425    -5.0836     4.3808 Cl     1 <0>      -0.0600
22 C22      -1.7444    -4.5777     2.0067 C.ar   1 <0>      -0.1200
23 C23      -2.7839    -4.6987     1.1012 C.ar   1 <0>       0.1800
24 H24      -6.6906     1.7086     0.5337 H      1 <0>       0.1200
25 H25      -5.1326     1.5835     1.3852 H      1 <0>       0.1200
26 H26      -5.1664     1.8699    -0.3712 H      1 <0>       0.1200
27 H27      -5.8643     0.1217    -1.8583 H      1 <0>       0.1200
28 H28      -6.3483    -1.4618    -1.2052 H      1 <0>       0.1200
29 H29      -7.3885    -0.0396    -0.9533 H      1 <0>       0.1200
30 H30      -3.7911    -0.1145    -0.7631 H      1 <0>       0.1300
31 H31      -3.7070    -0.2548     1.0093 H      1 <0>       0.1300
32 H32      -4.7075    -2.5199     0.8774 H      1 <0>       0.0900
33 H33      -4.7916    -2.3796    -0.8950 H      1 <0>       0.0900
34 H34      -2.3516    -2.1905    -1.0335 H      1 <0>       0.0900
35 H35      -2.2228    -2.1984     0.7418 H      1 <0>       0.0800
36 H36      -1.2436    -3.2946    -2.0362 H      1 <0>       0.1200
37 H37      -0.9923    -4.3446    -4.2409 H      1 <0>       0.1300
38 H38      -2.3286    -6.3457    -4.7959 H      1 <0>       0.1300
39 H39      -3.9157    -7.2458    -3.1688 H      1 <0>       0.1200
40 H40      -5.4491    -6.5933    -1.4331 H      1 <0>       0.0800
41 H41      -4.2037    -7.3786    -0.4571 H      1 <0>       0.0800
42 H42      -5.2919    -4.6051     0.0469 H      1 <0>       0.0700
43 H43      -5.8482    -6.0791     0.8597 H      1 <0>       0.0800
44 H44      -4.8613    -6.6813     2.8611 H      1 <0>       0.1400
45 H45      -3.0287    -6.4638     4.4931 H      1 <0>       0.1400
46 H46      -0.8720    -3.9905     1.7605 H      1 <0>       0.1400
@<TRIPOS>BOND
1    1    2 1
2    1   24 1
3    1   25 1
4    1   26 1
5    2    3 1
6    2    4 1
7    2    5 1
8    4   27 1
9    4   28 1
10    4   29 1
11    5    6 1
12    5   30 1
13    5   31 1
14    6    7 1
15    6   32 1
16    6   33 1
17    7    8 1
18    7   34 1
19    7   35 1
20    8   23 1
21    8    9 1
22    9   14 ar
23    9   10 ar
24   10   11 ar
25   10   36 1
26   11   12 ar
27   11   37 1
28   12   13 ar
29   12   38 1
30   13   14 ar
31   13   39 1
32   14   15 1
33   15   16 1
34   15   40 1
35   15   41 1
36   16   17 1
37   16   42 1
38   16   43 1
39   17   23 ar
40   17   18 ar
41   18   19 ar
42   18   44 1
43   19   20 ar
44   19   45 1
45   20   21 1
46   20   22 ar
47   22   23 ar
48   22   46 1
