@<TRIPOS>MOLECULE
ZINC000000003876
44    46    1     0     0
SMALL
USER_CHARGES
@<TRIPOS>ATOM
1      C1     -0.9126    1.3818    0.8037 C.3      1 ZINC000000003876   -0.1200
2      C2     -0.6972   -0.0986    0.6223 C.ar     1 ZINC000000003876   -0.0800
3      C3     -1.7829   -0.9352    0.4360 C.ar     1 ZINC000000003876   -0.1200
4      C4     -1.5915   -2.2918    0.2698 C.ar     1 ZINC000000003876   -0.0800
5      C5     -0.3016   -2.8184    0.2894 C.ar     1 ZINC000000003876   -0.0200
6      C6     -0.0895   -4.2762    0.1107 C.2      1 ZINC000000003876    0.1200
7      C7      0.7796   -5.0489    0.8202 C.2      1 ZINC000000003876   -0.0400
8      C8      1.6961   -4.5845    1.9227 C.3      1 ZINC000000003876   -0.0600
9      C9      3.0602   -4.2928    1.3526 C.2      1 ZINC000000003876    0.5100
10     O10     3.2678   -4.4468    0.1677 O.2      1 ZINC000000003876   -0.5200
11     N11     4.0495   -3.8608    2.1595 N.am     1 ZINC000000003876   -0.6200
12     C12     5.3756   -3.5772    1.6053 C.3      1 ZINC000000003876    0.0800
13     C13     3.7987   -3.6748    3.5909 C.3      1 ZINC000000003876    0.0700
14     N14     0.6639   -6.3245    0.3436 N.pl3    1 ZINC000000003876   -0.3500
15     C15     1.2858   -7.4925    0.6801 C.2      1 ZINC000000003876    0.0500
16     C16     0.9838   -8.6415    0.0402 C.2      1 ZINC000000003876   -0.1100
17     C17     1.6811   -9.9205    0.4260 C.3      1 ZINC000000003876   -0.1100
18     C18     0.0221   -8.6508   -0.9838 C.2      1 ZINC000000003876   -0.1000
19     C19    -0.6054   -7.4948   -1.3296 C.2      1 ZINC000000003876   -0.0700
20     C20    -0.2789   -6.3019   -0.6521 C.2      1 ZINC000000003876    0.2300
21     N21    -0.7254   -5.0607   -0.7738 N.2      1 ZINC000000003876   -0.4800
22     C22     0.7885   -1.9710    0.4770 C.ar     1 ZINC000000003876   -0.1000
23     C23     0.5859   -0.6152    0.6370 C.ar     1 ZINC000000003876   -0.1200
24     H24    -0.8989    1.8729   -0.1693 H        1 ZINC000000003876    0.0700
25     H25    -1.8764    1.5527    1.2834 H        1 ZINC000000003876    0.0700
26     H26    -0.1184    1.7907    1.4283 H        1 ZINC000000003876    0.0700
27     H27    -2.7823   -0.5260    0.4210 H        1 ZINC000000003876    0.1300
28     H28    -2.4400   -2.9442    0.1251 H        1 ZINC000000003876    0.1300
29     H29     1.2904   -3.6798    2.3755 H        1 ZINC000000003876    0.1200
30     H30     1.7779   -5.3644    2.6798 H        1 ZINC000000003876    0.1000
31     H31     5.4231   -2.5342    1.2922 H        1 ZINC000000003876    0.0600
32     H32     6.1345   -3.7632    2.3654 H        1 ZINC000000003876    0.0700
33     H33     5.5561   -4.2231    0.7461 H        1 ZINC000000003876    0.0800
34     H34     3.4939   -4.6235    4.0327 H        1 ZINC000000003876    0.0600
35     H35     4.7091   -3.3236    4.0766 H        1 ZINC000000003876    0.0800
36     H36     3.0065   -2.9388    3.7283 H        1 ZINC000000003876    0.0700
37     H37     2.0267   -7.4968    1.4659 H        1 ZINC000000003876    0.1600
38     H38     1.1140  -10.4210    1.2108 H        1 ZINC000000003876    0.0800
39     H39     1.7509  -10.5731   -0.4443 H        1 ZINC000000003876    0.0800
40     H40     2.6827   -9.6926    0.7905 H        1 ZINC000000003876    0.0700
41     H41    -0.2177   -9.5718   -1.4944 H        1 ZINC000000003876    0.1400
42     H42    -1.3461   -7.4904   -2.1155 H        1 ZINC000000003876    0.1500
43     H43     1.7904   -2.3739    0.4934 H        1 ZINC000000003876    0.1200
44     H44     1.4300    0.0426    0.7825 H        1 ZINC000000003876    0.1200
@<TRIPOS>BOND
1     1     2     1
2     1     24    1
3     1     25    1
4     1     26    1
5     2     23    ar
6     2     3     ar
7     3     4     ar
8     3     27    1
9     4     5     ar
10    4     28    1
11    5     6     1
12    5     22    ar
13    6     21    1
14    6     7     2
15    7     8     1
16    7     14    1
17    8     9     1
18    8     29    1
19    8     30    1
20    9     10    2
21    9     11    am
22    11    12    1
23    11    13    1
24    12    31    1
25    12    32    1
26    12    33    1
27    13    34    1
28    13    35    1
29    13    36    1
30    14    20    1
31    14    15    1
32    15    16    2
33    15    37    1
34    16    17    1
35    16    18    1
36    17    38    1
37    17    39    1
38    17    40    1
39    18    19    2
40    18    41    1
41    19    20    1
42    19    42    1
43    20    21    2
44    22    23    ar
45    22    43    1
46    23    44    1
@<TRIPOS>SUBSTRUCTURE
1   ZINC000000003876 1     RESIDUE    1   A     ZIN   1
