@<TRIPOS>MOLECULE
ZINC000003784120
57    58    1     0     0
SMALL
USER_CHARGES
@<TRIPOS>ATOM
1      C1     -0.0179    1.4678    0.0101 C.3      1 ZINC000003784120   -0.0400
2      C2      0.0021   -0.0041    0.0020 C.1      1 ZINC000003784120   -0.2000
3      C3      0.0180   -1.1779   -0.0044 C.1      1 ZINC000003784120   -0.1800
4      C4      0.0380   -2.6498   -0.0125 C.3      1 ZINC000003784120    0.0000
5      C5     -1.3974   -3.1794   -0.0017 C.3      1 ZINC000003784120   -0.1100
6      H6     -1.9342   -2.7566    0.8476 H        1 ZINC000003784120    0.0800
7      C7     -2.0993   -2.7769   -1.3002 C.3      1 ZINC000003784120   -0.1500
8      C8     -1.3774   -4.7047    0.1157 C.3      1 ZINC000003784120    0.1400
9      H9     -0.8773   -4.9914    1.0408 H        1 ZINC000003784120    0.1100
10     O10    -0.6736   -5.2589   -0.9977 O.3      1 ZINC000003784120   -0.5600
11     C11    -2.7912   -5.2263    0.1264 C.2      1 ZINC000003784120   -0.1900
12     C12    -3.1616   -6.1325   -0.7441 C.2      1 ZINC000003784120   -0.1300
13     C13    -4.5754   -6.6542   -0.7334 C.3      1 ZINC000003784120   -0.0500
14     H14    -5.1510   -6.1621    0.0507 H        1 ZINC000003784120    0.0900
15     C15    -5.2376   -6.4205   -2.1038 C.3      1 ZINC000003784120    0.1100
16     H16    -4.4880   -6.4379   -2.8950 H        1 ZINC000003784120    0.0600
17     O17    -5.9383   -5.1751   -2.1115 O.3      1 ZINC000003784120   -0.5600
18     C18    -6.2219   -7.5926   -2.2727 C.3      1 ZINC000003784120   -0.1500
19     C19    -5.6167   -8.7679   -1.4900 C.3      1 ZINC000003784120   -0.0900
20     H20    -5.1542   -9.4883   -2.1647 H        1 ZINC000003784120    0.0800
21     C21    -6.7100   -9.4345   -0.6399 C.3      1 ZINC000003784120   -0.0900
22     C22    -6.1086   -9.6322    0.7376 C.2      1 ZINC000003784120   -0.1500
23     C23    -6.3909  -10.5790    1.5978 C.2      1 ZINC000003784120   -0.1300
24     C24    -7.4181  -11.6269    1.2548 C.3      1 ZINC000003784120   -0.0900
25     C25    -6.7985  -13.0175    1.4072 C.3      1 ZINC000003784120   -0.0900
26     C26    -7.8414  -14.0815    1.0589 C.3      1 ZINC000003784120   -0.1800
27     C27    -7.2311  -15.4512    1.2090 C.2      1 ZINC000003784120    0.4900
28     O28    -6.0696  -15.5658    1.5618 O.co2    1 ZINC000003784120   -0.7000
29     O29    -7.8987  -16.4448    0.9776 O.co2    1 ZINC000003784120   -0.7100
30     C30    -5.1117   -8.5032    0.9095 C.3      1 ZINC000003784120   -0.0800
31     C31    -4.5770   -8.1750   -0.5160 C.3      1 ZINC000003784120   -0.0800
32     H32    -3.5844   -8.5992   -0.6672 H        1 ZINC000003784120    0.0900
33     H33     1.0047    1.8451    0.0024 H        1 ZINC000003784120    0.0800
34     H34    -0.5451    1.8289   -0.8729 H        1 ZINC000003784120    0.0800
35     H35    -0.5281    1.8193    0.9069 H        1 ZINC000003784120    0.0800
36     H36     0.5481   -3.0013   -0.9093 H        1 ZINC000003784120    0.0900
37     H37     0.5651   -3.0109    0.8705 H        1 ZINC000003784120    0.0900
38     H38    -3.1219   -3.1542   -1.2925 H        1 ZINC000003784120    0.0700
39     H39    -2.1136   -1.6902   -1.3838 H        1 ZINC000003784120    0.0600
40     H40    -1.5625   -3.1997   -2.1495 H        1 ZINC000003784120    0.0500
41     H41    -1.0636   -5.0439   -1.8561 H        1 ZINC000003784120    0.3700
42     H42    -3.4990   -4.8531    0.8517 H        1 ZINC000003784120    0.1200
43     H43    -2.4538   -6.5058   -1.4694 H        1 ZINC000003784120    0.1200
44     H44    -6.3757   -4.9750   -2.9504 H        1 ZINC000003784120    0.3800
45     H45    -7.1954   -7.3281   -1.8599 H        1 ZINC000003784120    0.0800
46     H46    -6.3184   -7.8532   -3.3267 H        1 ZINC000003784120    0.0700
47     H47    -7.5843   -8.7866   -0.5781 H        1 ZINC000003784120    0.0700
48     H48    -6.9854  -10.3972   -1.0707 H        1 ZINC000003784120    0.0700
49     H49    -5.8875  -10.6085    2.5528 H        1 ZINC000003784120    0.1100
50     H50    -8.2709  -11.5335    1.9272 H        1 ZINC000003784120    0.0700
51     H51    -7.7497  -11.4877    0.2259 H        1 ZINC000003784120    0.0600
52     H52    -5.9457  -13.1109    0.7348 H        1 ZINC000003784120    0.0600
53     H53    -6.4669  -13.1568    2.4361 H        1 ZINC000003784120    0.0600
54     H54    -8.6942  -13.9881    1.7313 H        1 ZINC000003784120    0.0500
55     H55    -8.1730  -13.9422    0.0300 H        1 ZINC000003784120    0.0500
56     H56    -5.6027   -7.6319    1.3430 H        1 ZINC000003784120    0.0700
57     H57    -4.2868   -8.8247    1.5454 H        1 ZINC000003784120    0.0700
@<TRIPOS>BOND
1     1     2     1
2     1     33    1
3     1     34    1
4     1     35    1
5     2     3     3
6     3     4     1
7     4     5     1
8     4     36    1
9     4     37    1
10    5     6     1
11    5     7     1
12    5     8     1
13    7     38    1
14    7     39    1
15    7     40    1
16    8     9     1
17    8     10    1
18    8     11    1
19    10    41    1
20    11    12    2
21    11    42    1
22    12    13    1
23    12    43    1
24    13    14    1
25    13    31    1
26    13    15    1
27    15    16    1
28    15    17    1
29    15    18    1
30    17    44    1
31    18    19    1
32    18    45    1
33    18    46    1
34    19    20    1
35    19    31    1
36    19    21    1
37    21    22    1
38    21    47    1
39    21    48    1
40    22    23    2
41    22    30    1
42    23    24    1
43    23    49    1
44    24    25    1
45    24    50    1
46    24    51    1
47    25    26    1
48    25    52    1
49    25    53    1
50    26    27    1
51    26    54    1
52    26    55    1
53    27    28    ar
54    27    29    ar
55    30    31    1
56    30    56    1
57    30    57    1
58    31    32    1
@<TRIPOS>SUBSTRUCTURE
1   ZINC000003784120 1     RESIDUE    1   A     ZIN   1
