@<TRIPOS>MOLECULE
ZINC000022010387
32    33    1     0     0
SMALL
USER_CHARGES
@<TRIPOS>ATOM
1      C1     -0.0187    1.5258    0.0104 C.3      1 ZINC000022010387   -0.1800
2      C2      0.0021   -0.0041    0.0020 C.3      1 ZINC000022010387    0.0000
3      H3     -1.0204   -0.3816    0.0098 H        1 ZINC000022010387    0.1500
4      C4      0.7193   -0.4981   -1.2568 C.3      1 ZINC000022010387    0.1300
5      H5      1.7288   -0.0878   -1.2853 H        1 ZINC000022010387    0.0900
6      C6     -0.0410   -0.0493   -2.4781 C.ar     1 ZINC000022010387   -0.1100
7      C7     -1.1669   -0.7409   -2.8842 C.ar     1 ZINC000022010387   -0.0900
8      C8     -1.8643   -0.3292   -4.0044 C.ar     1 ZINC000022010387   -0.1200
9      C9     -1.4360    0.7743   -4.7184 C.ar     1 ZINC000022010387   -0.1000
10     C10    -0.3106    1.4664   -4.3118 C.ar     1 ZINC000022010387   -0.1200
11     C11     0.3843    1.0573   -3.1890 C.ar     1 ZINC000022010387   -0.1000
12     O12     0.7849   -1.9267   -1.2321 O.3      1 ZINC000022010387   -0.3500
13     C13     1.4491   -2.4508   -0.0788 C.3      1 ZINC000022010387    0.0300
14     C14     0.7332   -1.9604    1.1821 C.3      1 ZINC000022010387   -0.0500
15     N15     0.7135   -0.4912    1.1919 N.4      1 ZINC000022010387   -0.3800
16     H16     0.2420   -0.1665    2.0227 H        1 ZINC000022010387    0.4300
17     C17     2.0917    0.0172    1.1804 C.3      1 ZINC000022010387   -0.0700
18     H18     1.0039    1.9031    0.0027 H        1 ZINC000022010387    0.0800
19     H19    -0.5459    1.8868   -0.8726 H        1 ZINC000022010387    0.1100
20     H20    -0.5289    1.8773    0.9072 H        1 ZINC000022010387    0.0900
21     H21    -1.5015   -1.6031   -2.3264 H        1 ZINC000022010387    0.1300
22     H22    -2.7436   -0.8700   -4.3221 H        1 ZINC000022010387    0.1300
23     H23    -1.9805    1.0955   -5.5941 H        1 ZINC000022010387    0.1300
24     H24     0.0241    2.3284   -4.8698 H        1 ZINC000022010387    0.1300
25     H25     1.2635    1.5981   -2.8714 H        1 ZINC000022010387    0.1300
26     H26     1.4268   -3.5402   -0.1097 H        1 ZINC000022010387    0.1400
27     H27     2.4835   -2.1074   -0.0670 H        1 ZINC000022010387    0.0800
28     H28    -0.2895   -2.3375    1.1896 H        1 ZINC000022010387    0.1400
29     H29     1.2611   -2.3228    2.0642 H        1 ZINC000022010387    0.1400
30     H30     2.6008   -0.3333    0.2827 H        1 ZINC000022010387    0.1200
31     H31     2.0769    1.1071    1.1876 H        1 ZINC000022010387    0.1300
32     H32     2.6198   -0.3448    2.0625 H        1 ZINC000022010387    0.1300
@<TRIPOS>BOND
1     1     2     1
2     1     18    1
3     1     19    1
4     1     20    1
5     2     3     1
6     2     15    1
7     2     4     1
8     4     5     1
9     4     6     1
10    4     12    1
11    6     11    ar
12    6     7     ar
13    7     8     ar
14    7     21    1
15    8     9     ar
16    8     22    1
17    9     10    ar
18    9     23    1
19    10    11    ar
20    10    24    1
21    11    25    1
22    12    13    1
23    13    14    1
24    13    26    1
25    13    27    1
26    14    15    1
27    14    28    1
28    14    29    1
29    15    16    1
30    15    17    1
31    17    30    1
32    17    31    1
33    17    32    1
@<TRIPOS>SUBSTRUCTURE
1   ZINC000022010387 1     RESIDUE    1   A     ZIN   1
