@<TRIPOS>MOLECULE
ZINC000000033882
23   23    0    0    0
SMALL
USER_CHARGES
NO_NAME
@<TRIPOS>ATOM
1 N1       -0.0116     1.0048     0.0076 N.4    1 <0>      -0.6400
2 H2        0.0021    -0.0041     0.0020 H      1 <0>       0.4400
3 H3        0.9350     1.3541     0.0004 H      1 <0>       0.4400
4 H4       -0.4996     1.3391    -0.8099 H      1 <0>       0.4400
5 C5       -0.6992     1.4786     1.2162 C.3    1 <0>      -0.0100
6 C6        0.0408     0.9717     2.4557 C.3    1 <0>      -0.1000
7 C7       -0.6646     1.4577     3.6956 C.ar   1 <0>      -0.1000
8 C8       -0.3130     2.6701     4.2585 C.ar   1 <0>      -0.1000
9 C9       -0.9569     3.1202     5.3964 C.ar   1 <0>      -0.1300
10 C10      -1.9571     2.3558     5.9745 C.ar   1 <0>       0.1000
11 O11      -2.5917     2.7972     7.0933 O.3    1 <0>      -0.4800
12 C12      -2.3115     1.1350     5.4073 C.ar   1 <0>       0.0900
13 O13      -3.2932     0.3812     5.9708 O.3    1 <0>      -0.4800
14 C14      -1.6661     0.6924     4.2644 C.ar   1 <0>      -0.1200
15 H15      -0.7140     2.5685     1.2222 H      1 <0>       0.1400
16 H16      -1.7218     1.1013     1.2239 H      1 <0>       0.1300
17 H17       0.0556    -0.1181     2.4497 H      1 <0>       0.1000
18 H18       1.0634     1.3490     2.4480 H      1 <0>       0.1000
19 H19       0.4667     3.2670     3.8088 H      1 <0>       0.1300
20 H20      -0.6798     4.0676     5.8347 H      1 <0>       0.1400
21 H21      -3.3770     3.3325     6.9148 H      1 <0>       0.4000
22 H22      -4.1786     0.5711     5.6317 H      1 <0>       0.3900
23 H23      -1.9391    -0.2544     3.8223 H      1 <0>       0.1400
@<TRIPOS>BOND
1    1    2 1
2    1    3 1
3    1    4 1
4    1    5 1
5    5    6 1
6    5   15 1
7    5   16 1
8    6    7 1
9    6   17 1
10    6   18 1
11    7   14 ar
12    7    8 ar
13    8    9 ar
14    8   19 1
15    9   10 ar
16    9   20 1
17   10   11 1
18   10   12 ar
19   11   21 1
20   12   13 1
21   12   14 ar
22   13   22 1
23   14   23 1
