@<TRIPOS>MOLECULE
ZINC000019594557
55   58    0    0    0
SMALL
USER_CHARGES
NO_NAME
@<TRIPOS>ATOM
1 C1       -0.0184     1.5028     0.0103 C.3    1 <0>      -0.1200
2 C2        0.0021    -0.0041     0.0020 C.ar   1 <0>      -0.0900
3 C3        0.0057    -0.6885    -1.1987 C.ar   1 <0>      -0.1200
4 C4        0.0245    -2.0710    -1.2063 C.ar   1 <0>      -0.1200
5 C5        0.0400    -2.7685    -0.0132 C.ar   1 <0>      -0.1200
6 C6        0.0373    -2.0838     1.1879 C.ar   1 <0>      -0.0800
7 C7        0.0538    -2.8443     2.4888 C.3    1 <0>       0.0900
8 N8        1.4440    -3.0735     2.9045 N.3    1 <0>      -0.5300
9 C9        2.2576    -3.5545     1.7792 C.3    1 <0>       0.0600
10 C10       3.7118    -3.7046     2.2321 C.3    1 <0>       0.0600
11 N11       3.7759    -4.6411     3.3628 N.3    1 <0>      -0.5300
12 C12       5.1661    -4.8703     3.7784 C.3    1 <0>       0.1700
13 H13       5.6152    -3.9246     4.0820 H      1 <0>       0.0600
14 C14       5.1917    -5.8334     4.9372 C.ar   1 <0>      -0.0800
15 C15       4.3420    -6.9238     4.9486 C.ar   1 <0>      -0.0900
16 C16       4.3654    -7.8072     6.0115 C.ar   1 <0>      -0.1200
17 C17       5.2389    -7.6006     7.0629 C.ar   1 <0>      -0.1200
18 C18       6.0892    -6.5108     7.0510 C.ar   1 <0>      -0.1200
19 C19       6.0687    -5.6297     5.9861 C.ar   1 <0>      -0.1100
20 C20       5.9458    -5.4497     2.6263 C.ar   1 <0>      -0.0700
21 C21       5.3623    -6.3943     1.8027 C.ar   1 <0>      -0.0800
22 C22       6.0769    -6.9261     0.7459 C.ar   1 <0>      -0.1100
23 C23       7.3765    -6.5129     0.5124 C.ar   1 <0>      -0.0300
24 Cl24      8.2745    -7.1800    -0.8151 Cl     1 <0>      -0.0700
25 C25       7.9600    -5.5676     1.3371 C.ar   1 <0>      -0.1100
26 C26       7.2424    -5.0324     2.3902 C.ar   1 <0>      -0.1000
27 C27       2.9623    -4.1601     4.4881 C.3    1 <0>       0.0600
28 C28       1.5080    -4.0100     4.0352 C.3    1 <0>       0.0600
29 C29       0.0229    -0.7017     1.1955 C.ar   1 <0>      -0.1000
30 H30       1.0042     1.8801     0.0026 H      1 <0>       0.0700
31 H31      -0.5455     1.8639    -0.8728 H      1 <0>       0.0700
32 H32      -0.5286     1.8543     0.9071 H      1 <0>       0.0700
33 H33      -0.0064    -0.1435    -2.1310 H      1 <0>       0.1200
34 H34       0.0266    -2.6058    -2.1446 H      1 <0>       0.1200
35 H35       0.0540    -3.8484    -0.0191 H      1 <0>       0.1200
36 H36      -0.4637    -2.2660     3.2543 H      1 <0>       0.0800
37 H37      -0.4484    -3.8025     2.3559 H      1 <0>       0.0400
38 H38       1.8796    -4.5203     1.4439 H      1 <0>       0.0400
39 H39       2.2041    -2.8382     0.9594 H      1 <0>       0.0900
40 H40       4.3118    -4.0889     1.4072 H      1 <0>       0.0800
41 H41       4.0983    -2.7336     2.5418 H      1 <0>       0.0400
42 H42       3.6596    -7.0852     4.1272 H      1 <0>       0.1300
43 H43       3.7011    -8.6587     6.0207 H      1 <0>       0.1200
44 H44       5.2567    -8.2905     7.8936 H      1 <0>       0.1200
45 H45       6.7714    -6.3492     7.8726 H      1 <0>       0.1200
46 H46       6.7331    -4.7782     5.9768 H      1 <0>       0.1200
47 H47       4.3479    -6.7170     1.9852 H      1 <0>       0.1400
48 H48       5.6210    -7.6642     0.1027 H      1 <0>       0.1300
49 H49       8.9745    -5.2449     1.1555 H      1 <0>       0.1300
50 H50       7.6976    -4.2942     3.0338 H      1 <0>       0.1300
51 H51       3.0158    -4.8764     5.3079 H      1 <0>       0.0900
52 H52       3.3402    -3.1942     4.8234 H      1 <0>       0.0400
53 H53       0.9081    -3.6257     4.8601 H      1 <0>       0.0800
54 H54       1.1215    -4.9810     3.7255 H      1 <0>       0.0400
55 H55       0.0208    -0.1668     2.1337 H      1 <0>       0.1200
@<TRIPOS>BOND
1    1    2 1
2    1   30 1
3    1   31 1
4    1   32 1
5    2   29 ar
6    2    3 ar
7    3    4 ar
8    3   33 1
9    4    5 ar
10    4   34 1
11    5    6 ar
12    5   35 1
13    6    7 1
14    6   29 ar
15    7    8 1
16    7   36 1
17    7   37 1
18    8   28 1
19    8    9 1
20    9   10 1
21    9   38 1
22    9   39 1
23   10   11 1
24   10   40 1
25   10   41 1
26   11   12 1
27   11   27 1
28   12   13 1
29   12   14 1
30   12   20 1
31   14   19 ar
32   14   15 ar
33   15   16 ar
34   15   42 1
35   16   17 ar
36   16   43 1
37   17   18 ar
38   17   44 1
39   18   19 ar
40   18   45 1
41   19   46 1
42   20   26 ar
43   20   21 ar
44   21   22 ar
45   21   47 1
46   22   23 ar
47   22   48 1
48   23   24 1
49   23   25 ar
50   25   26 ar
51   25   49 1
52   26   50 1
53   27   28 1
54   27   51 1
55   27   52 1
56   28   53 1
57   28   54 1
58   29   55 1
