@<TRIPOS>MOLECULE
ZINC000100001964
54    55    1     0     0
SMALL
USER_CHARGES
@<TRIPOS>ATOM
1      C1      1.2195   -0.8830    2.0508 C.3      1 ZINC000100001964   -0.1500
2      C2      0.3680   -1.0805    0.7951 C.3      1 ZINC000100001964    0.0600
3      O3      1.1846   -1.5966   -0.2579 O.3      1 ZINC000100001964   -0.3500
4      C4      0.5820   -1.8290   -1.4428 C.2      1 ZINC000100001964    0.5200
5      O5     -0.6054   -1.5990   -1.5769 O.2      1 ZINC000100001964   -0.4900
6      C6      1.3304   -2.3397   -2.5285 C.2      1 ZINC000100001964   -0.1700
7      C7      1.6072   -3.6543   -2.5758 C.2      1 ZINC000100001964    0.1600
8      C8      1.1247   -4.5568   -1.4696 C.3      1 ZINC000100001964    0.1000
9      O9      0.1662   -5.4793   -1.9914 O.3      1 ZINC000100001964   -0.3900
10     C10    -0.3574   -6.3858   -1.0187 C.3      1 ZINC000100001964    0.0200
11     C11    -1.3681   -7.3212   -1.6852 C.3      1 ZINC000100001964    0.0000
12     N12    -0.6788   -8.1645   -2.6709 N.4      1 ZINC000100001964   -0.6400
13     H13    -0.2487   -7.5797   -3.3717 H        1 ZINC000100001964    0.4400
14     H14     0.0312   -8.7116   -2.2076 H        1 ZINC000100001964    0.4300
15     H15    -1.3453   -8.7814   -3.1105 H        1 ZINC000100001964    0.4400
16     N16     2.3213   -4.1830   -3.6162 N.pl3    1 ZINC000100001964   -0.6300
17     C17     2.4576   -3.4850   -4.7851 C.2      1 ZINC000100001964    0.2300
18     C18     2.8830   -4.2068   -6.0377 C.3      1 ZINC000100001964   -0.1100
19     C19     2.2170   -2.1633   -4.8298 C.2      1 ZINC000100001964   -0.2400
20     C20     2.3603   -1.4751   -6.0568 C.2      1 ZINC000100001964    0.5200
21     O21     2.6980   -2.0795   -7.0575 O.2      1 ZINC000100001964   -0.5200
22     O22     2.1224   -0.1481   -6.1180 O.3      1 ZINC000100001964   -0.3400
23     C23     2.2866    0.4824   -7.3898 C.3      1 ZINC000100001964    0.0400
24     C24     1.7936   -1.4024   -3.6074 C.3      1 ZINC000100001964    0.0700
25     H25     0.9847   -0.7210   -3.8711 H        1 ZINC000100001964    0.1100
26     C26     2.9633   -0.6066   -3.0884 C.ar     1 ZINC000100001964   -0.0800
27     C27     4.1229   -1.2528   -2.7044 C.ar     1 ZINC000100001964   -0.0900
28     C28     5.1962   -0.5228   -2.2281 C.ar     1 ZINC000100001964   -0.1200
29     C29     5.1099    0.8536   -2.1353 C.ar     1 ZINC000100001964   -0.1000
30     C30     3.9504    1.5011   -2.5190 C.ar     1 ZINC000100001964   -0.1100
31     C31     2.8785    0.7718   -3.0014 C.ar     1 ZINC000100001964   -0.0200
32     Cl32    1.4221    1.5843   -3.4836 Cl       1 ZINC000100001964   -0.0600
33     H33     1.6443   -1.8394    2.3559 H        1 ZINC000100001964    0.0700
34     H34     2.0243   -0.1796    1.8371 H        1 ZINC000100001964    0.0700
35     H35     0.5966   -0.4893    2.8540 H        1 ZINC000100001964    0.0800
36     H36    -0.4368   -1.7839    1.0088 H        1 ZINC000100001964    0.0700
37     H37    -0.0568   -0.1242    0.4900 H        1 ZINC000100001964    0.0700
38     H38     1.9695   -5.1065   -1.0546 H        1 ZINC000100001964    0.0900
39     H39     0.6620   -3.9562   -0.6865 H        1 ZINC000100001964    0.0900
40     H40     0.4566   -6.9734   -0.5943 H        1 ZINC000100001964    0.0800
41     H41    -0.8509   -5.8231   -0.2262 H        1 ZINC000100001964    0.1000
42     H42    -1.8327   -7.9530   -0.9282 H        1 ZINC000100001964    0.1500
43     H43    -2.1351   -6.7302   -2.1858 H        1 ZINC000100001964    0.1400
44     H44     2.7331   -5.0565   -3.5246 H        1 ZINC000100001964    0.4200
45     H45     3.0326   -5.2633   -5.8153 H        1 ZINC000100001964    0.0600
46     H46     2.1092   -4.1017   -6.7982 H        1 ZINC000100001964    0.1100
47     H47     3.8148   -3.7775   -6.4058 H        1 ZINC000100001964    0.1100
48     H48     1.6059    0.0293   -8.1106 H        1 ZINC000100001964    0.0600
49     H49     2.0649    1.5458   -7.2995 H        1 ZINC000100001964    0.1000
50     H50     3.3142    0.3531   -7.7295 H        1 ZINC000100001964    0.0600
51     H51     4.1907   -2.3283   -2.7761 H        1 ZINC000100001964    0.1200
52     H52     6.1023   -1.0282   -1.9282 H        1 ZINC000100001964    0.1300
53     H53     5.9483    1.4232   -1.7625 H        1 ZINC000100001964    0.1300
54     H54     3.8831    2.5766   -2.4465 H        1 ZINC000100001964    0.1400
@<TRIPOS>BOND
1     1     2     1
2     1     33    1
3     1     34    1
4     1     35    1
5     2     3     1
6     2     36    1
7     2     37    1
8     3     4     1
9     4     5     2
10    4     6     1
11    6     24    1
12    6     7     2
13    7     8     1
14    7     16    1
15    8     9     1
16    8     38    1
17    8     39    1
18    9     10    1
19    10    11    1
20    10    40    1
21    10    41    1
22    11    12    1
23    11    42    1
24    11    43    1
25    12    13    1
26    12    14    1
27    12    15    1
28    16    17    1
29    16    44    1
30    17    18    1
31    17    19    2
32    18    45    1
33    18    46    1
34    18    47    1
35    19    20    1
36    19    24    1
37    20    21    2
38    20    22    1
39    22    23    1
40    23    48    1
41    23    49    1
42    23    50    1
43    24    25    1
44    24    26    1
45    26    31    ar
46    26    27    ar
47    27    28    ar
48    27    51    1
49    28    29    ar
50    28    52    1
51    29    30    ar
52    29    53    1
53    30    31    ar
54    30    54    1
55    31    32    1
@<TRIPOS>SUBSTRUCTURE
1   ZINC000100001964 1     RESIDUE    1   A     ZIN   1
