@<TRIPOS>MOLECULE
ZINC000000896819
39   39    0    0    0
SMALL
USER_CHARGES
NO_NAME
@<TRIPOS>ATOM
1 C1        0.1009     1.8096     0.0729 C.3    1 <0>      -0.1900
2 C2        0.0658     0.2819    -0.0036 C.3    1 <0>       0.0200
3 C3        0.7779    -0.1815    -1.2760 C.3    1 <0>      -0.1800
4 N4        0.7443    -0.2828     1.1706 N.4    1 <0>      -0.5000
5 H5        0.7938    -1.2865     1.0801 H      1 <0>       0.4300
6 H6        1.6775     0.0955     1.2341 H      1 <0>       0.4300
7 C7       -0.0078     0.0630     2.3842 C.3    1 <0>      -0.0500
8 C8        0.6988    -0.5252     3.6071 C.3    1 <0>       0.1400
9 H9        1.7070    -0.1165     3.6757 H      1 <0>       0.1300
10 O10       0.7688    -1.9467     3.4789 O.3    1 <0>      -0.5500
11 C11      -0.0728    -0.1705     4.8520 C.ar   1 <0>      -0.1500
12 C12      -1.1329    -0.9615     5.2554 C.ar   1 <0>      -0.0900
13 C13      -1.8422    -0.6393     6.3957 C.ar   1 <0>      -0.1300
14 C14      -1.4896     0.4808     7.1378 C.ar   1 <0>       0.1700
15 N15      -2.2044     0.8093     8.2919 N.am   1 <0>      -1.0600
16 S16      -1.3962     1.2161     9.6789 S.o2   1 <0>       2.6100
17 C17      -0.4269    -0.2617    10.0879 C.3    1 <0>      -0.6700
18 O18      -0.5407     2.2807     9.2865 O.2    1 <0>      -0.9500
19 O19      -2.4253     1.4185    10.6376 O.2    1 <0>      -0.9400
20 C20      -0.4241     1.2732     6.7298 C.ar   1 <0>      -0.1500
21 C21       0.2845     0.9421     5.5915 C.ar   1 <0>      -0.0800
22 H22       1.1366     2.1488     0.0921 H      1 <0>       0.0800
23 H23      -0.4026     2.2286    -0.7984 H      1 <0>       0.1100
24 H24      -0.4064     2.1398     0.9794 H      1 <0>       0.0800
25 H25      -0.9699    -0.0572    -0.0228 H      1 <0>       0.1400
26 H26       1.8136     0.1576    -1.2568 H      1 <0>       0.0800
27 H27       0.7529    -1.2699    -1.3304 H      1 <0>       0.0800
28 H28       0.2745     0.2375    -2.1472 H      1 <0>       0.1100
29 H29      -0.0612     1.1473     2.4819 H      1 <0>       0.1500
30 H30      -1.0160    -0.3458     2.3156 H      1 <0>       0.1400
31 H31      -0.0938    -2.3786     3.4127 H      1 <0>       0.3900
32 H32      -1.4068    -1.8320     4.6778 H      1 <0>       0.1300
33 H33      -2.6703    -1.2573     6.7100 H      1 <0>       0.1400
34 H34      -3.1743     0.7991     8.2810 H      1 <0>       0.4300
35 H35       0.3179    -0.4342     9.3109 H      1 <0>       0.1300
36 H36       0.0738    -0.1144    11.0448 H      1 <0>       0.1400
37 H37      -1.0899    -1.1244    10.1537 H      1 <0>       0.1300
38 H38      -0.1476     2.1449     7.3043 H      1 <0>       0.1700
39 H39       1.1130     1.5577     5.2737 H      1 <0>       0.1400
@<TRIPOS>BOND
1    1    2 1
2    1   22 1
3    1   23 1
4    1   24 1
5    2    3 1
6    2    4 1
7    2   25 1
8    3   26 1
9    3   27 1
10    3   28 1
11    4    5 1
12    4    6 1
13    4    7 1
14    7    8 1
15    7   29 1
16    7   30 1
17    8    9 1
18    8   10 1
19    8   11 1
20   10   31 1
21   11   21 ar
22   11   12 ar
23   12   13 ar
24   12   32 1
25   13   14 ar
26   13   33 1
27   14   15 1
28   14   20 ar
29   15   16 am
30   15   34 1
31   16   17 1
32   16   18 2
33   16   19 2
34   17   35 1
35   17   36 1
36   17   37 1
37   20   21 ar
38   20   38 1
39   21   39 1
