@<TRIPOS>MOLECULE
ZINC000000004448
42    45    1     0     0
SMALL
USER_CHARGES
@<TRIPOS>ATOM
1      C1     -0.4474   -3.3368    1.8697 C.3      1 ZINC000000004448   -0.1100
2      C2     -0.1700   -2.2463    0.8673 C.cat    1 ZINC000000004448    0.3000
3      N3     -0.0005   -2.4173   -0.4153 N.pl3    1 ZINC000000004448   -0.4700
4      H4     -0.0328   -3.2696   -0.8772 H        1 ZINC000000004448    0.4600
5      C5      0.2254   -1.2286   -0.9941 C.2      1 ZINC000000004448   -0.0100
6      C6      0.1948   -0.2851   -0.0336 C.2      1 ZINC000000004448    0.0700
7      N7     -0.0613   -0.9295    1.1466 N.pl3    1 ZINC000000004448   -0.4000
8      C8     -0.1857   -0.3078    2.4673 C.3      1 ZINC000000004448    0.1100
9      C9     -1.6630   -0.2311    2.8577 C.3      1 ZINC000000004448   -0.1500
10     H10    -2.1121   -1.2204    2.7700 H        1 ZINC000000004448    0.1200
11     C11    -1.7811    0.2531    4.3028 C.3      1 ZINC000000004448   -0.1000
12     C12    -3.2544    0.3421    4.7192 C.3      1 ZINC000000004448   -0.0700
13     C13    -3.9662    1.2411    3.7364 C.2      1 ZINC000000004448    0.1600
14     C14    -3.5189    1.4018    2.4294 C.2      1 ZINC000000004448   -0.2900
15     C15    -4.4348    2.3332    1.7921 C.ar     1 ZINC000000004448   -0.0500
16     C16    -4.5011    2.8747    0.5094 C.ar     1 ZINC000000004448   -0.0800
17     C17    -5.5403    3.7532    0.2532 C.ar     1 ZINC000000004448   -0.1200
18     C18    -6.4736    4.0821    1.2206 C.ar     1 ZINC000000004448   -0.1000
19     C19    -6.4260    3.5553    2.5003 C.ar     1 ZINC000000004448   -0.1100
20     C20    -5.3898    2.6692    2.7843 C.ar     1 ZINC000000004448    0.0700
21     N21    -5.0665    1.9872    3.9284 N.pl3    1 ZINC000000004448   -0.4400
22     C22    -5.8169    2.0607    5.1845 C.3      1 ZINC000000004448    0.0600
23     C23    -2.3777    0.7284    1.9316 C.2      1 ZINC000000004448    0.4300
24     O24    -1.9870    0.9110    0.7968 O.2      1 ZINC000000004448   -0.4800
25     H25    -1.5229   -3.4228    2.0247 H        1 ZINC000000004448    0.1200
26     H26    -0.0576   -4.2830    1.4945 H        1 ZINC000000004448    0.1200
27     H27     0.0375   -3.0933    2.8150 H        1 ZINC000000004448    0.1100
28     H28     0.4011   -1.0580   -2.0459 H        1 ZINC000000004448    0.2200
29     H29     0.3402    0.7765   -0.1691 H        1 ZINC000000004448    0.2200
30     H30     0.3538   -0.9052    3.2023 H        1 ZINC000000004448    0.1300
31     H31     0.2347    0.6974    2.4368 H        1 ZINC000000004448    0.1300
32     H32    -1.2623   -0.4445    4.9602 H        1 ZINC000000004448    0.1000
33     H33    -1.3214    1.2374    4.3918 H        1 ZINC000000004448    0.0900
34     H34    -3.7027   -0.6513    4.7009 H        1 ZINC000000004448    0.1000
35     H35    -3.3286    0.7617    5.7225 H        1 ZINC000000004448    0.1000
36     H36    -3.7754    2.6212   -0.2492 H        1 ZINC000000004448    0.1400
37     H37    -5.6251    4.1937   -0.7292 H        1 ZINC000000004448    0.1300
38     H38    -7.2649    4.7728    0.9693 H        1 ZINC000000004448    0.1300
39     H39    -7.1607    3.8204    3.2461 H        1 ZINC000000004448    0.1300
40     H40    -6.5892    1.2916    5.1919 H        1 ZINC000000004448    0.0900
41     H41    -5.1384    1.9024    6.0228 H        1 ZINC000000004448    0.0900
42     H42    -6.2813    3.0428    5.2734 H        1 ZINC000000004448    0.0900
@<TRIPOS>BOND
1     1     2     1
2     1     25    1
3     1     26    1
4     1     27    1
5     2     7     ar
6     2     3     ar
7     3     4     1
8     3     5     1
9     5     6     2
10    5     28    1
11    6     7     1
12    6     29    1
13    7     8     1
14    8     9     1
15    8     30    1
16    8     31    1
17    9     10    1
18    9     23    1
19    9     11    1
20    11    12    1
21    11    32    1
22    11    33    1
23    12    13    1
24    12    34    1
25    12    35    1
26    13    21    1
27    13    14    2
28    14    15    1
29    14    23    1
30    15    20    ar
31    15    16    ar
32    16    17    ar
33    16    36    1
34    17    18    ar
35    17    37    1
36    18    19    ar
37    18    38    1
38    19    20    ar
39    19    39    1
40    20    21    1
41    21    22    1
42    22    40    1
43    22    41    1
44    22    42    1
45    23    24    2
@<TRIPOS>SUBSTRUCTURE
1   ZINC000000004448 1     RESIDUE    1   A     ZIN   1
