@<TRIPOS>MOLECULE
ZINC000000596881
40   42    0    0    0
SMALL
USER_CHARGES
NO_NAME
@<TRIPOS>ATOM
1 Cl1       0.0021    -0.0041     0.0020 Cl     1 <0>      -0.0500
2 C2       -0.0215     1.7317     0.0116 C.ar   1 <0>      -0.0200
3 C3       -1.2286     2.4074     0.0325 C.ar   1 <0>      -0.1100
4 C4       -1.2467     3.7894     0.0400 C.ar   1 <0>      -0.0800
5 C5       -0.0590     4.4966     0.0262 C.ar   1 <0>      -0.1000
6 C6       -0.0794     6.0034     0.0340 C.3    1 <0>       0.1000
7 O7       -0.0663     6.4730     1.3835 O.3    1 <0>      -0.3600
8 C8       -0.0840     7.8969     1.5036 C.3    1 <0>       0.1200
9 H9       -0.6161     8.3265     0.6549 H      1 <0>       0.0900
10 C10       1.3519     8.4247     1.5256 C.3    1 <0>       0.0700
11 N11       1.9921     8.1525     0.2363 N.pl3  1 <0>      -0.4100
12 C12       2.6936     7.0264    -0.1005 C.2    1 <0>       0.0300
13 C13       3.1054     7.1897    -1.3723 C.2    1 <0>       0.0000
14 N14       2.6672     8.3829    -1.8003 N.pl3  1 <0>      -0.4700
15 H15       2.8221     8.7544    -2.6829 H      1 <0>       0.4700
16 C16       1.9952     8.9631    -0.8438 C.cat  1 <0>       0.2900
17 C17      -0.7813     8.2845     2.7821 C.ar   1 <0>      -0.1000
18 C18      -0.8174     7.4014     3.8445 C.ar   1 <0>      -0.0600
19 C19      -1.4572     7.7560     5.0175 C.ar   1 <0>      -0.1000
20 C20      -2.0614     8.9955     5.1286 C.ar   1 <0>      -0.0100
21 Cl21     -2.8644     9.4410     6.6019 Cl     1 <0>      -0.0400
22 C22      -2.0253     9.8802     4.0656 C.ar   1 <0>      -0.1000
23 C23      -1.3804     9.5268     2.8941 C.ar   1 <0>      -0.0100
24 Cl24     -1.3340    10.6365     1.5599 Cl     1 <0>      -0.0600
25 C25       1.1475     3.8220     0.0058 C.ar   1 <0>      -0.0900
26 C26       1.1670     2.4400     0.0040 C.ar   1 <0>      -0.1100
27 H27      -2.1566     1.8550     0.0425 H      1 <0>       0.1400
28 H28      -2.1890     4.3169     0.0563 H      1 <0>       0.1300
29 H29       0.7980     6.3814    -0.4908 H      1 <0>       0.0500
30 H30      -0.9817     6.3571    -0.4651 H      1 <0>       0.0700
31 H31       1.3412     9.4996     1.7062 H      1 <0>       0.1300
32 H32       1.9094     7.9284     2.3200 H      1 <0>       0.1400
33 H33       2.8812     6.1715     0.5322 H      1 <0>       0.2200
34 H34       3.6865     6.4836    -1.9468 H      1 <0>       0.2300
35 H35       1.5253     9.9336    -0.9038 H      1 <0>       0.2600
36 H36      -0.3458     6.4336     3.7583 H      1 <0>       0.1500
37 H37      -1.4857     7.0652     5.8472 H      1 <0>       0.1500
38 H38      -2.4968    10.8480     4.1518 H      1 <0>       0.1500
39 H39       2.0751     4.3751    -0.0050 H      1 <0>       0.1200
40 H40       2.1096     1.9132    -0.0116 H      1 <0>       0.1400
@<TRIPOS>BOND
1    1    2 1
2    2   26 ar
3    2    3 ar
4    3    4 ar
5    3   27 1
6    4    5 ar
7    4   28 1
8    5    6 1
9    5   25 ar
10    6    7 1
11    6   29 1
12    6   30 1
13    7    8 1
14    8    9 1
15    8   10 1
16    8   17 1
17   10   11 1
18   10   31 1
19   10   32 1
20   11   16 ar
21   11   12 1
22   12   13 2
23   12   33 1
24   13   14 1
25   13   34 1
26   14   15 1
27   14   16 ar
28   16   35 1
29   17   23 ar
30   17   18 ar
31   18   19 ar
32   18   36 1
33   19   20 ar
34   19   37 1
35   20   21 1
36   20   22 ar
37   22   23 ar
38   22   38 1
39   23   24 1
40   25   26 ar
41   25   39 1
42   26   40 1
