@<TRIPOS>MOLECULE
ZINC000085537053
111   116   1     0     0
SMALL
USER_CHARGES
@<TRIPOS>ATOM
1      C1     -2.4741    1.5297   -4.5379 C.3      1 ZINC000085537053   -0.1500
2      C2     -1.7833    0.2306   -4.2122 C.2      1 ZINC000085537053    0.4600
3      O3     -0.7064   -0.0198   -4.6997 O.2      1 ZINC000085537053   -0.5000
4      O4     -2.3642   -0.6483   -3.3804 O.3      1 ZINC000085537053   -0.3400
5      C5     -1.6300   -1.8979   -3.1077 C.3      1 ZINC000085537053    0.1000
6      C6     -1.0906   -2.5551   -4.3848 C.3      1 ZINC000085537053    0.0300
7      O7      0.2209   -2.4697   -3.8003 O.3      1 ZINC000085537053   -0.3500
8      C8     -0.1804   -1.6381   -2.6970 C.3      1 ZINC000085537053    0.0700
9      H9      0.1165   -0.5770   -2.8705 H        1 ZINC000085537053    0.1100
10     C10     0.2981   -2.1124   -1.3465 C.3      1 ZINC000085537053   -0.1600
11     C11    -0.6502   -2.9447   -0.5167 C.3      1 ZINC000085537053    0.1200
12     H12    -1.2724   -2.3085    0.1030 H        1 ZINC000085537053    0.0600
13     O13     0.0988   -3.8360    0.3114 O.3      1 ZINC000085537053   -0.5500
14     C14    -1.5859   -3.8084   -1.4108 C.3      1 ZINC000085537053   -0.0400
15     C15    -0.6375   -4.6795   -2.2211 C.3      1 ZINC000085537053   -0.2000
16     C16    -2.4100   -4.6341   -0.4345 C.2      1 ZINC000085537053    0.3600
17     O17    -2.5129   -4.2736    0.7307 O.2      1 ZINC000085537053   -0.4300
18     C18    -3.1120   -5.9029   -0.8853 C.3      1 ZINC000085537053    0.1300
19     H19    -3.4885   -6.4172    0.0261 H        1 ZINC000085537053    0.0800
20     O20    -2.2500   -6.8450   -1.5083 O.3      1 ZINC000085537053   -0.5300
21     C21    -4.2526   -5.4582   -1.7291 C.2      1 ZINC000085537053   -0.1000
22     C22    -5.4297   -5.1719   -1.2150 C.2      1 ZINC000085537053   -0.0900
23     C23    -5.6930   -5.3945    0.2488 C.3      1 ZINC000085537053   -0.1500
24     C24    -6.5380   -4.5394   -1.9972 C.3      1 ZINC000085537053    0.1500
25     H25    -7.2228   -5.3161   -2.3261 H        1 ZINC000085537053    0.1100
26     O26    -7.2665   -3.6517   -1.1057 O.3      1 ZINC000085537053   -0.3300
27     C27    -8.4204   -4.1114   -0.5970 C.2      1 ZINC000085537053    0.4300
28     O28    -8.7909   -5.2320   -0.8560 O.2      1 ZINC000085537053   -0.4800
29     C29    -9.2540   -3.2300    0.2971 C.3      1 ZINC000085537053    0.1100
30     H30    -8.6417   -2.8672    1.1226 H        1 ZINC000085537053    0.1600
31     O31   -10.3543   -3.9809    0.8143 O.3      1 ZINC000085537053   -0.5100
32     C32    -9.7816   -2.0406   -0.5078 C.3      1 ZINC000085537053    0.1800
33     H33    -8.9451   -1.4211   -0.8313 H        1 ZINC000085537053    0.1200
34     N34   -10.5098   -2.5295   -1.6812 N.am     1 ZINC000085537053   -0.7100
35     C35   -10.6281   -1.7495   -2.7740 C.2      1 ZINC000085537053    0.6600
36     O36   -10.1308   -0.6409   -2.7860 O.2      1 ZINC000085537053   -0.5500
37     O37   -11.2973   -2.1988   -3.8524 O.3      1 ZINC000085537053   -0.3600
38     C38   -11.3848   -1.3051   -4.9934 C.3      1 ZINC000085537053    0.1400
39     C39    -9.9765   -0.9748   -5.4918 C.3      1 ZINC000085537053   -0.1800
40     C40   -12.1760   -1.9838   -6.1134 C.3      1 ZINC000085537053   -0.1400
41     C41   -12.0943   -0.0149   -4.5774 C.3      1 ZINC000085537053   -0.1800
42     C42   -10.7087   -1.2226    0.3539 C.ar     1 ZINC000085537053   -0.1000
43     C43   -11.9904   -1.6722    0.6105 C.ar     1 ZINC000085537053   -0.0800
44     C44   -12.8408   -0.9219    1.4009 C.ar     1 ZINC000085537053   -0.1200
45     C45   -12.4093    0.2778    1.9351 C.ar     1 ZINC000085537053   -0.1100
46     C46   -11.1273    0.7270    1.6792 C.ar     1 ZINC000085537053   -0.1200
47     C47   -10.2754   -0.0254    0.8923 C.ar     1 ZINC000085537053   -0.0900
48     C48    -6.0747   -3.7360   -3.1946 C.3      1 ZINC000085537053   -0.1500
49     C49    -4.5532   -3.8141   -3.4217 C.3      1 ZINC000085537053    0.1600
50     O50    -4.2853   -3.4347   -4.7753 O.3      1 ZINC000085537053   -0.5300
51     C51    -3.8658   -2.8842   -2.4631 C.3      1 ZINC000085537053    0.1000
52     H52    -4.1111   -1.8584   -2.9037 H        1 ZINC000085537053    0.0900
53     O53    -4.6024   -2.8144   -1.1969 O.3      1 ZINC000085537053   -0.3300
54     C54    -4.5327   -1.6567   -0.5117 C.2      1 ZINC000085537053    0.5000
55     O55    -3.8458   -0.7452   -0.9277 O.2      1 ZINC000085537053   -0.4900
56     C56    -5.2914   -1.4956    0.7455 C.ar     1 ZINC000085537053   -0.1200
57     C57    -6.1569   -2.5031    1.1763 C.ar     1 ZINC000085537053   -0.0900
58     C58    -6.8624   -2.3461    2.3513 C.ar     1 ZINC000085537053   -0.1500
59     C59    -6.7139   -1.1935    3.1023 C.ar     1 ZINC000085537053   -0.0700
60     C60    -5.8580   -0.1912    2.6813 C.ar     1 ZINC000085537053   -0.1300
61     C61    -5.1421   -0.3376    1.5113 C.ar     1 ZINC000085537053   -0.0500
62     C62    -2.4103   -2.8207   -2.1766 C.3      1 ZINC000085537053   -0.1100
63     H63    -2.5019   -2.0439   -1.2827 H        1 ZINC000085537053    0.1100
64     C64    -4.1972   -5.2891   -3.2180 C.3      1 ZINC000085537053    0.0000
65     C65    -2.8897   -5.6521   -3.9004 C.3      1 ZINC000085537053   -0.1500
66     C66    -5.2627   -6.2036   -3.8703 C.3      1 ZINC000085537053   -0.1500
67     H67    -1.8552    2.1084   -5.2235 H        1 ZINC000085537053    0.1000
68     H68    -3.4369    1.3221   -5.0048 H        1 ZINC000085537053    0.1000
69     H69    -2.6300    2.0982   -3.6210 H        1 ZINC000085537053    0.1000
70     H70    -1.4375   -3.5652   -4.5741 H        1 ZINC000085537053    0.1100
71     H71    -1.2026   -1.9229   -5.2772 H        1 ZINC000085537053    0.0900
72     H72     1.2349   -2.6789   -1.4809 H        1 ZINC000085537053    0.1000
73     H73     0.5827   -1.2265   -0.7493 H        1 ZINC000085537053    0.0800
74     H74     0.7000   -3.3915    0.9247 H        1 ZINC000085537053    0.3800
75     H75     0.2011   -4.9838   -1.5947 H        1 ZINC000085537053    0.0700
76     H76    -1.1679   -5.5643   -2.5730 H        1 ZINC000085537053    0.1000
77     H77    -0.2661   -4.1145   -3.0760 H        1 ZINC000085537053    0.1000
78     H78    -1.5281   -7.1518   -0.9428 H        1 ZINC000085537053    0.3900
79     H79    -5.3606   -4.5239    0.8143 H        1 ZINC000085537053    0.0900
80     H80    -6.7610   -5.5445    0.4072 H        1 ZINC000085537053    0.0700
81     H81    -5.1483   -6.2764    0.5860 H        1 ZINC000085537053    0.0800
82     H82   -10.9430   -4.3353    0.1339 H        1 ZINC000085537053    0.3800
83     H83   -10.9067   -3.4144   -1.6717 H        1 ZINC000085537053    0.4000
84     H84    -9.4711   -1.8939   -5.7881 H        1 ZINC000085537053    0.0600
85     H85   -10.0422   -0.3038   -6.3483 H        1 ZINC000085537053    0.0700
86     H86    -9.4129   -0.4912   -4.6939 H        1 ZINC000085537053    0.0900
87     H87   -13.1793   -2.2191   -5.7584 H        1 ZINC000085537053    0.0700
88     H88   -12.2417   -1.3129   -6.9699 H        1 ZINC000085537053    0.0800
89     H89   -11.6705   -2.9029   -6.4098 H        1 ZINC000085537053    0.0700
90     H90   -11.5307    0.4686   -3.7795 H        1 ZINC000085537053    0.0900
91     H91   -12.1600    0.6560   -5.4340 H        1 ZINC000085537053    0.0700
92     H92   -13.0976   -0.2502   -4.2224 H        1 ZINC000085537053    0.0600
93     H93   -12.3275   -2.6096    0.1931 H        1 ZINC000085537053    0.1200
94     H94   -13.8424   -1.2729    1.6008 H        1 ZINC000085537053    0.1200
95     H95   -13.0739    0.8644    2.5520 H        1 ZINC000085537053    0.1200
96     H96   -10.7902    1.6645    2.0963 H        1 ZINC000085537053    0.1200
97     H97    -9.2738    0.3255    0.6925 H        1 ZINC000085537053    0.1200
98     H98    -6.5916   -4.0431   -4.0884 H        1 ZINC000085537053    0.1000
99     H99    -6.3104   -2.6843   -3.0082 H        1 ZINC000085537053    0.0800
100    H100   -4.5735   -2.5387   -4.9970 H        1 ZINC000085537053    0.3800
101    H101   -6.2739   -3.4030    0.5909 H        1 ZINC000085537053    0.1600
102    H102   -7.5324   -3.1244    2.6855 H        1 ZINC000085537053    0.1300
103    H103   -7.2690   -1.0755    4.0213 H        1 ZINC000085537053    0.1300
104    H104   -5.7469    0.7059    3.2722 H        1 ZINC000085537053    0.1300
105    H105   -4.4744    0.4455    1.1837 H        1 ZINC000085537053    0.1400
106    H106   -2.1414   -4.8906   -3.6806 H        1 ZINC000085537053    0.0700
107    H107   -2.5438   -6.6181   -3.5325 H        1 ZINC000085537053    0.0800
108    H108   -3.0454   -5.7082   -4.9778 H        1 ZINC000085537053    0.0600
109    H109   -5.4108   -5.9058   -4.9083 H        1 ZINC000085537053    0.0700
110    H110   -4.9241   -7.2390   -3.8341 H        1 ZINC000085537053    0.0700
111    H111   -6.2034   -6.1097   -3.3277 H        1 ZINC000085537053    0.0600
@<TRIPOS>BOND
1     1     2     1
2     1     67    1
3     1     68    1
4     1     69    1
5     2     3     2
6     2     4     1
7     4     5     1
8     5     8     1
9     5     62    1
10    5     6     1
11    6     7     1
12    6     70    1
13    6     71    1
14    7     8     1
15    8     9     1
16    8     10    1
17    10    11    1
18    10    72    1
19    10    73    1
20    11    12    1
21    11    13    1
22    11    14    1
23    13    74    1
24    14    62    1
25    14    15    1
26    14    16    1
27    15    75    1
28    15    76    1
29    15    77    1
30    16    17    2
31    16    18    1
32    18    19    1
33    18    20    1
34    18    21    1
35    20    78    1
36    21    64    1
37    21    22    2
38    22    23    1
39    22    24    1
40    23    79    1
41    23    80    1
42    23    81    1
43    24    25    1
44    24    26    1
45    24    48    1
46    26    27    1
47    27    28    2
48    27    29    1
49    29    30    1
50    29    31    1
51    29    32    1
52    31    82    1
53    32    33    1
54    32    34    1
55    32    42    1
56    34    35    am
57    34    83    1
58    35    36    2
59    35    37    1
60    37    38    1
61    38    39    1
62    38    40    1
63    38    41    1
64    39    84    1
65    39    85    1
66    39    86    1
67    40    87    1
68    40    88    1
69    40    89    1
70    41    90    1
71    41    91    1
72    41    92    1
73    42    47    ar
74    42    43    ar
75    43    44    ar
76    43    93    1
77    44    45    ar
78    44    94    1
79    45    46    ar
80    45    95    1
81    46    47    ar
82    46    96    1
83    47    97    1
84    48    49    1
85    48    98    1
86    48    99    1
87    49    50    1
88    49    51    1
89    49    64    1
90    50    100   1
91    51    52    1
92    51    53    1
93    51    62    1
94    53    54    1
95    54    55    2
96    54    56    1
97    56    61    ar
98    56    57    ar
99    57    58    ar
100   57    101   1
101   58    59    ar
102   58    102   1
103   59    60    ar
104   59    103   1
105   60    61    ar
106   60    104   1
107   61    105   1
108   62    63    1
109   64    65    1
110   64    66    1
111   65    106   1
112   65    107   1
113   65    108   1
114   66    109   1
115   66    110   1
116   66    111   1
@<TRIPOS>SUBSTRUCTURE
1   ZINC000085537053 1     RESIDUE    1   A     ZIN   1
