@<TRIPOS>MOLECULE
ZINC000000518554
35    36    1     0     0
SMALL
USER_CHARGES
@<TRIPOS>ATOM
1      O1     -0.0173    1.4248    0.0099 O.3      1 ZINC000000518554   -0.5700
2      C2      0.0021   -0.0041    0.0020 C.3      1 ZINC000000518554    0.0900
3      C3     -1.4333   -0.5336    0.0129 C.3      1 ZINC000000518554    0.1100
4      H4     -1.9703   -0.1110    0.8621 H        1 ZINC000000518554    0.0800
5      O5     -2.0889   -0.1583   -1.2001 O.3      1 ZINC000000518554   -0.3700
6      C6     -3.4509   -0.5831   -1.2828 C.3      1 ZINC000000518554    0.2300
7      H7     -4.0143   -0.1613   -0.4505 H        1 ZINC000000518554    0.0800
8      O8     -4.0158   -0.1349   -2.5165 O.3      1 ZINC000000518554   -0.3000
9      C9     -4.1338    1.2087   -2.6895 C.ar     1 ZINC000000518554    0.1100
10     C10    -3.7090    2.0760   -1.6940 C.ar     1 ZINC000000518554   -0.1600
11     C11    -3.8289    3.4408   -1.8697 C.ar     1 ZINC000000518554   -0.1100
12     C12    -4.3737    3.9440   -3.0417 C.ar     1 ZINC000000518554    0.0700
13     O13    -4.4921    5.2876   -3.2145 O.3      1 ZINC000000518554   -0.5000
14     C14    -4.7973    3.0767   -4.0378 C.ar     1 ZINC000000518554   -0.1100
15     C15    -4.6738    1.7119   -3.8637 C.ar     1 ZINC000000518554   -0.1300
16     C16    -3.5121   -2.1114   -1.2183 C.3      1 ZINC000000518554    0.0600
17     H17    -2.9830   -2.5335   -2.0727 H        1 ZINC000000518554    0.0900
18     O18    -4.8763   -2.5362   -1.2440 O.3      1 ZINC000000518554   -0.5500
19     C19    -2.8509   -2.5868    0.0790 C.3      1 ZINC000000518554    0.0900
20     H20    -3.4093   -2.2053    0.9339 H        1 ZINC000000518554    0.0800
21     O21    -2.8398   -4.0154    0.1143 O.3      1 ZINC000000518554   -0.5500
22     C22    -1.4135   -2.0600    0.1297 C.3      1 ZINC000000518554    0.0900
23     H23    -0.8419   -2.4810   -0.6974 H        1 ZINC000000518554    0.0800
24     O24    -0.8098   -2.4378    1.3686 O.3      1 ZINC000000518554   -0.5500
25     H25     0.8606    1.8301    0.0037 H        1 ZINC000000518554    0.3900
26     H26     0.5123   -0.3556   -0.8948 H        1 ZINC000000518554    0.0600
27     H27     0.5293   -0.3651    0.8851 H        1 ZINC000000518554    0.0800
28     H28    -3.2848    1.6842   -0.7813 H        1 ZINC000000518554    0.1400
29     H29    -3.4987    4.1162   -1.0942 H        1 ZINC000000518554    0.1300
30     H30    -3.7217    5.7004   -3.6281 H        1 ZINC000000518554    0.3900
31     H31    -5.2212    3.4685   -4.9506 H        1 ZINC000000518554    0.1400
32     H32    -5.0036    1.0366   -4.6393 H        1 ZINC000000518554    0.1400
33     H33    -5.3578   -2.2651   -2.0376 H        1 ZINC000000518554    0.4000
34     H34    -3.7190   -4.4165    0.0792 H        1 ZINC000000518554    0.4000
35     H35    -0.7681   -3.3935    1.5105 H        1 ZINC000000518554    0.4000
@<TRIPOS>BOND
1     1     2     1
2     1     25    1
3     2     3     1
4     2     26    1
5     2     27    1
6     3     4     1
7     3     22    1
8     3     5     1
9     5     6     1
10    6     7     1
11    6     8     1
12    6     16    1
13    8     9     1
14    9     15    ar
15    9     10    ar
16    10    11    ar
17    10    28    1
18    11    12    ar
19    11    29    1
20    12    13    1
21    12    14    ar
22    13    30    1
23    14    15    ar
24    14    31    1
25    15    32    1
26    16    17    1
27    16    18    1
28    16    19    1
29    18    33    1
30    19    20    1
31    19    21    1
32    19    22    1
33    21    34    1
34    22    23    1
35    22    24    1
36    24    35    1
@<TRIPOS>SUBSTRUCTURE
1   ZINC000000518554 1     RESIDUE    1   A     ZIN   1
