@<TRIPOS>MOLECULE
ZINC000003812851
47    48    1     0     0
SMALL
USER_CHARGES
@<TRIPOS>ATOM
1      C1     -0.0187    1.5258    0.0104 C.3      1 ZINC000003812851   -0.1300
2      C2      0.0021   -0.0041    0.0020 C.3      1 ZINC000003812851    0.0900
3      H3     -1.0205   -0.3814    0.0098 H        1 ZINC000003812851    0.0400
4      N4      0.7126   -0.4907    1.1921 N.3      1 ZINC000003812851   -0.6400
5      C5     -0.1906   -0.5721    2.3478 C.3      1 ZINC000003812851    0.0200
6      H6     -1.1850   -0.8662    2.0119 H        1 ZINC000003812851    0.0300
7      C7      0.3408   -1.6102    3.3383 C.3      1 ZINC000003812851   -0.0900
8      C8      0.2999   -2.9974    2.6941 C.3      1 ZINC000003812851   -0.0900
9      C9      0.8234   -4.0198    3.6696 C.ar     1 ZINC000003812851   -0.0600
10     C10     2.1722   -4.3209    3.6980 C.ar     1 ZINC000003812851   -0.1200
11     C11     2.6524   -5.2588    4.5929 C.ar     1 ZINC000003812851   -0.1200
12     C12     1.7837   -5.8952    5.4596 C.ar     1 ZINC000003812851   -0.1400
13     C13     0.4350   -5.5935    5.4319 C.ar     1 ZINC000003812851   -0.1200
14     C14    -0.0445   -4.6525    4.5399 C.ar     1 ZINC000003812851   -0.1200
15     C15    -0.2657    0.7734    3.0224 C.2      1 ZINC000003812851    0.5000
16     O16     0.3738    1.7131    2.5813 O.co2    1 ZINC000003812851   -0.6600
17     O17    -0.9661    0.9223    4.0092 O.co2    1 ZINC000003812851   -0.7200
18     C18     0.7074   -0.4901   -1.2379 C.2      1 ZINC000003812851    0.5300
19     O19     1.7039   -1.1744   -1.1398 O.2      1 ZINC000003812851   -0.5400
20     N20     0.2309   -0.1642   -2.4557 N.am     1 ZINC000003812851   -0.5900
21     C21    -0.9612    0.6622   -2.7190 C.3      1 ZINC000003812851    0.1000
22     C22    -1.4323    0.2395   -4.1329 C.3      1 ZINC000003812851   -0.1300
23     C23    -0.0792    0.0101   -4.8565 C.3      1 ZINC000003812851   -0.1100
24     C24     0.8176   -0.5687   -3.7417 C.3      1 ZINC000003812851    0.0700
25     H25     0.8370   -1.6565   -3.8089 H        1 ZINC000003812851    0.0600
26     C26     2.2158   -0.0222   -3.8732 C.2      1 ZINC000003812851    0.5000
27     O27     2.5166    1.0222   -3.3208 O.co2    1 ZINC000003812851   -0.6800
28     O28     3.0463   -0.6245   -4.5321 O.co2    1 ZINC000003812851   -0.7100
29     H29     1.0039    1.9031    0.0027 H        1 ZINC000003812851    0.0600
30     H30    -0.5459    1.8868   -0.8726 H        1 ZINC000003812851    0.0300
31     H31    -0.5289    1.8773    0.9072 H        1 ZINC000003812851    0.1000
32     H32     1.1511   -1.3815    1.0124 H        1 ZINC000003812851    0.3300
33     H33     1.3683   -1.3641    3.6061 H        1 ZINC000003812851    0.0700
34     H34    -0.2790   -1.6075    4.2349 H        1 ZINC000003812851    0.0700
35     H35    -0.7276   -3.2434    2.4262 H        1 ZINC000003812851    0.0700
36     H36     0.9198   -3.0000    1.7975 H        1 ZINC000003812851    0.0700
37     H37     2.8509   -3.8237    3.0209 H        1 ZINC000003812851    0.1300
38     H38     3.7061   -5.4946    4.6146 H        1 ZINC000003812851    0.1200
39     H39     2.1587   -6.6285    6.1583 H        1 ZINC000003812851    0.1100
40     H40    -0.2437   -6.0910    6.1088 H        1 ZINC000003812851    0.1200
41     H41    -1.0982   -4.4167    4.5183 H        1 ZINC000003812851    0.1200
42     H42    -1.7373    0.4540   -1.9825 H        1 ZINC000003812851    0.0700
43     H43    -0.6995    1.7202   -2.7069 H        1 ZINC000003812851    0.0700
44     H44    -2.0144   -0.6812   -4.0917 H        1 ZINC000003812851    0.0700
45     H45    -2.0003    1.0379   -4.6104 H        1 ZINC000003812851    0.0700
46     H46    -0.1941   -0.7041   -5.6719 H        1 ZINC000003812851    0.0700
47     H47     0.3271    0.9530   -5.2227 H        1 ZINC000003812851    0.0700
@<TRIPOS>BOND
1     1     2     1
2     1     29    1
3     1     30    1
4     1     31    1
5     2     3     1
6     2     4     1
7     2     18    1
8     4     5     1
9     4     32    1
10    5     6     1
11    5     7     1
12    5     15    1
13    7     8     1
14    7     33    1
15    7     34    1
16    8     9     1
17    8     35    1
18    8     36    1
19    9     14    ar
20    9     10    ar
21    10    11    ar
22    10    37    1
23    11    12    ar
24    11    38    1
25    12    13    ar
26    12    39    1
27    13    14    ar
28    13    40    1
29    14    41    1
30    15    16    ar
31    15    17    ar
32    18    19    2
33    18    20    am
34    20    24    1
35    20    21    1
36    21    22    1
37    21    42    1
38    21    43    1
39    22    23    1
40    22    44    1
41    22    45    1
42    23    24    1
43    23    46    1
44    23    47    1
45    24    25    1
46    24    26    1
47    26    27    ar
48    26    28    ar
@<TRIPOS>SUBSTRUCTURE
1   ZINC000003812851 1     RESIDUE    1   A     ZIN   1
