@<TRIPOS>MOLECULE
ZINC000001532529
20   19    0    0    0
SMALL
USER_CHARGES
NO_NAME
@<TRIPOS>ATOM
1 C1       -0.0225     1.8097     0.0120 C.3    1 <0>      -0.1300
2 S2        0.0021    -0.0041     0.0020 S.3    1 <0>      -0.2400
3 C3        0.8766    -0.3918    -1.5392 C.3    1 <0>      -0.1100
4 C4        0.9820    -1.9099    -1.6977 C.3    1 <0>      -0.1100
5 C5        1.7197    -2.2370    -2.9977 C.3    1 <0>      -0.0400
6 H6        2.6852    -1.7312    -3.0047 H      1 <0>       0.1300
7 N7        0.9198    -1.7813    -4.1425 N.4    1 <0>      -0.6200
8 H8        0.7778    -0.7845    -4.0780 H      1 <0>       0.4100
9 H9        1.4063    -1.9970    -4.9998 H      1 <0>       0.4300
10 H10       0.0261    -2.2495    -4.1360 H      1 <0>       0.4300
11 C11       1.9318    -3.7259    -3.0939 C.2    1 <0>       0.4900
12 O12       1.0928    -4.4276    -3.6326 O.co2  1 <0>      -0.6700
13 O13       2.9424    -4.2287    -2.6331 O.co2  1 <0>      -0.6300
14 H14       1.0001     2.1870     0.0043 H      1 <0>       0.0800
15 H15      -0.5497     2.1708    -0.8711 H      1 <0>       0.0800
16 H16      -0.5327     2.1613     0.9088 H      1 <0>       0.1100
17 H17       0.3269     0.0243    -2.3835 H      1 <0>       0.0700
18 H18       1.8767     0.0405    -1.5081 H      1 <0>       0.0900
19 H19       1.5317    -2.3261    -0.8535 H      1 <0>       0.1200
20 H20      -0.0181    -2.3423    -1.7288 H      1 <0>       0.0900
@<TRIPOS>BOND
1    1    2 1
2    1   14 1
3    1   15 1
4    1   16 1
5    2    3 1
6    3    4 1
7    3   17 1
8    3   18 1
9    4    5 1
10    4   19 1
11    4   20 1
12    5    6 1
13    5    7 1
14    5   11 1
15    7    8 1
16    7    9 1
17    7   10 1
18   11   12 ar
19   11   13 ar
