@<TRIPOS>MOLECULE
ZINC000000006226
19    19    1     0     0
SMALL
USER_CHARGES
@<TRIPOS>ATOM
1      C1     -0.0184    1.5028    0.0103 C.3      1 ZINC000000006226   -0.1100
2      C2      0.0021   -0.0041    0.0020 C.2      1 ZINC000000006226    0.1000
3      C3      0.0056   -0.6685   -1.1781 C.2      1 ZINC000000006226   -0.0300
4      O4     -0.0092    0.0160   -2.3543 O.3      1 ZINC000000006226   -0.4700
5      C5      0.0253   -2.0864   -1.1729 C.2      1 ZINC000000006226    0.3600
6      O6      0.0294   -2.7142   -2.2223 O.2      1 ZINC000000006226   -0.5300
7      C7      0.0408   -2.7588    0.0695 C.2      1 ZINC000000006226   -0.3000
8      C8      0.0363   -2.0375    1.2129 C.2      1 ZINC000000006226    0.1400
9      N9      0.0225   -0.6834    1.1785 N.pl3    1 ZINC000000006226   -0.4600
10     C10     0.0180    0.0650    2.4378 C.3      1 ZINC000000006226    0.0600
11     H11     1.0042    1.8801    0.0026 H        1 ZINC000000006226    0.0800
12     H12    -0.5455    1.8639   -0.8728 H        1 ZINC000000006226    0.0900
13     H13    -0.5286    1.8543    0.9071 H        1 ZINC000000006226    0.0700
14     H14    -0.0052   -0.5496   -3.1386 H        1 ZINC000000006226    0.4100
15     H15     0.0556   -3.8381    0.1054 H        1 ZINC000000006226    0.1500
16     H16     0.0480   -2.5469    2.1652 H        1 ZINC000000006226    0.1700
17     H17     0.0272   -0.6327    3.2752 H        1 ZINC000000006226    0.1000
18     H18     0.9017    0.7013    2.4854 H        1 ZINC000000006226    0.0800
19     H19    -0.8781    0.6833    2.4899 H        1 ZINC000000006226    0.0800
@<TRIPOS>BOND
1     1     2     1
2     1     11    1
3     1     12    1
4     1     13    1
5     2     9     1
6     2     3     2
7     3     4     1
8     3     5     1
9     4     14    1
10    5     6     2
11    5     7     1
12    7     8     2
13    7     15    1
14    8     9     1
15    8     16    1
16    9     10    1
17    10    17    1
18    10    18    1
19    10    19    1
@<TRIPOS>SUBSTRUCTURE
1   ZINC000000006226 1     RESIDUE    1   A     ZIN   1
