@<TRIPOS>MOLECULE
ZINC000003831417
51    51    1     0     0
SMALL
USER_CHARGES
@<TRIPOS>ATOM
1      C1      0.1832    1.2417   -0.1263 C.3      1 ZINC000003831417   -0.1300
2      C2      0.3818   -0.2493   -0.0343 C.2      1 ZINC000003831417   -0.0800
3      C3      0.3516   -0.8881    1.2217 C.2      1 ZINC000003831417   -0.1200
4      C4      0.1437   -0.1609    2.3475 C.2      1 ZINC000003831417   -0.1000
5      C5     -0.0055   -0.8350    3.6358 C.2      1 ZINC000003831417   -0.1000
6      C6     -0.9590   -1.7414    3.7581 C.2      1 ZINC000003831417   -0.1100
7      C7     -1.8253   -2.0281    2.5587 C.3      1 ZINC000003831417   -0.1200
8      C8     -1.2280   -2.5022    5.0238 C.3      1 ZINC000003831417   -0.0800
9      C9     -0.0248   -2.4028    5.9637 C.3      1 ZINC000003831417   -0.1200
10     C10     0.3744   -0.9275    6.0899 C.3      1 ZINC000003831417   -0.1100
11     C11     0.9370   -0.4627    4.7431 C.3      1 ZINC000003831417   -0.0200
12     C12     2.2969   -1.1226    4.5065 C.3      1 ZINC000003831417   -0.1400
13     C13     1.1106    1.0573    4.7635 C.3      1 ZINC000003831417   -0.1400
14     C14     0.5901   -0.9783   -1.1629 C.2      1 ZINC000003831417   -0.1300
15     C15     0.6204   -0.3395   -2.4189 C.2      1 ZINC000003831417   -0.1200
16     C16     0.8282   -1.0667   -3.5448 C.2      1 ZINC000003831417   -0.1100
17     C17     0.8596   -0.4042   -4.8473 C.2      1 ZINC000003831417   -0.0900
18     C18     0.6610    1.0868   -4.9393 C.3      1 ZINC000003831417   -0.1300
19     C19     1.0642   -1.1202   -5.9558 C.2      1 ZINC000003831417   -0.1500
20     C20     1.0965   -0.4372   -7.2987 C.3      1 ZINC000003831417    0.1000
21     O21     2.2029   -0.9298   -8.0571 O.3      1 ZINC000003831417   -0.5700
22     H22     1.1488    1.7421   -0.0525 H        1 ZINC000003831417    0.0700
23     H23    -0.2816    1.4882   -1.0810 H        1 ZINC000003831417    0.0700
24     H24    -0.4611    1.5734    0.6879 H        1 ZINC000003831417    0.0700
25     H25     0.4939   -1.9566    1.2876 H        1 ZINC000003831417    0.1100
26     H26     0.0886    0.9163    2.2921 H        1 ZINC000003831417    0.1200
27     H27    -1.3810   -2.8334    1.9738 H        1 ZINC000003831417    0.0700
28     H28    -2.8194   -2.3265    2.8915 H        1 ZINC000003831417    0.0600
29     H29    -1.9020   -1.1317    1.9434 H        1 ZINC000003831417    0.0700
30     H30    -2.1066   -2.0854    5.5161 H        1 ZINC000003831417    0.0700
31     H31    -1.4134   -3.5492    4.7836 H        1 ZINC000003831417    0.0700
32     H32    -0.2933   -2.7947    6.9448 H        1 ZINC000003831417    0.0700
33     H33     0.8082   -2.9738    5.5537 H        1 ZINC000003831417    0.0700
34     H34    -0.5008   -0.3324    6.3505 H        1 ZINC000003831417    0.0600
35     H35     1.1371   -0.8193    6.8610 H        1 ZINC000003831417    0.0700
36     H36     2.1782   -2.2061    4.4973 H        1 ZINC000003831417    0.0600
37     H37     2.6989   -0.7930    3.5485 H        1 ZINC000003831417    0.0600
38     H38     2.9823   -0.8389    5.3051 H        1 ZINC000003831417    0.0600
39     H39     1.7248    1.3415    5.6179 H        1 ZINC000003831417    0.0600
40     H40     1.5973    1.3798    3.8430 H        1 ZINC000003831417    0.0600
41     H41     0.1335    1.5336    4.8439 H        1 ZINC000003831417    0.0600
42     H42     0.7324   -2.0468   -1.0970 H        1 ZINC000003831417    0.1100
43     H43     0.4781    0.7291   -2.4849 H        1 ZINC000003831417    0.1200
44     H44     0.9705   -2.1352   -3.4788 H        1 ZINC000003831417    0.1200
45     H45     1.6265    1.5872   -4.8654 H        1 ZINC000003831417    0.0700
46     H46     0.1961    1.3332   -5.8939 H        1 ZINC000003831417    0.0700
47     H47     0.0166    1.4185   -4.1251 H        1 ZINC000003831417    0.0700
48     H48     1.2065   -2.1887   -5.8898 H        1 ZINC000003831417    0.1200
49     H49     0.1692   -0.6429   -7.8334 H        1 ZINC000003831417    0.0600
50     H50     1.2033    0.6383   -7.1569 H        1 ZINC000003831417    0.0600
51     H51     2.2857   -0.5330   -8.9351 H        1 ZINC000003831417    0.3800
@<TRIPOS>BOND
1     1     2     1
2     1     22    1
3     1     23    1
4     1     24    1
5     2     3     1
6     2     14    2
7     3     4     2
8     3     25    1
9     4     5     1
10    4     26    1
11    5     11    1
12    5     6     2
13    6     7     1
14    6     8     1
15    7     27    1
16    7     28    1
17    7     29    1
18    8     9     1
19    8     30    1
20    8     31    1
21    9     10    1
22    9     32    1
23    9     33    1
24    10    11    1
25    10    34    1
26    10    35    1
27    11    12    1
28    11    13    1
29    12    36    1
30    12    37    1
31    12    38    1
32    13    39    1
33    13    40    1
34    13    41    1
35    14    15    1
36    14    42    1
37    15    16    2
38    15    43    1
39    16    17    1
40    16    44    1
41    17    18    1
42    17    19    2
43    18    45    1
44    18    46    1
45    18    47    1
46    19    20    1
47    19    48    1
48    20    21    1
49    20    49    1
50    20    50    1
51    21    51    1
@<TRIPOS>SUBSTRUCTURE
1   ZINC000003831417 1     RESIDUE    1   A     ZIN   1
