@<TRIPOS>MOLECULE
ZINC000004658552
10    9    0    0    0
SMALL
USER_CHARGES
NO_NAME
@<TRIPOS>ATOM
1 N1       -0.0116     1.0048     0.0076 N.4    1 <0>      -0.6100
2 H2        0.0021    -0.0041     0.0020 H      1 <0>       0.4200
3 H3        0.9350     1.3541     0.0004 H      1 <0>       0.4300
4 H4       -0.4996     1.3391    -0.8099 H      1 <0>       0.4300
5 C5       -0.6992     1.4786     1.2162 C.3    1 <0>      -0.0900
6 C6       -0.7196     2.9854     1.2245 C.2    1 <0>       0.4800
7 O7       -0.2088     3.6071     0.3085 O.co2  1 <0>      -0.6800
8 O8       -1.2470     3.5829     2.1472 O.co2  1 <0>      -0.6400
9 H9       -1.7218     1.1013     1.2239 H      1 <0>       0.1300
10 H10      -0.1720     1.1175     2.0992 H      1 <0>       0.1300
@<TRIPOS>BOND
1    1    2 1
2    1    3 1
3    1    4 1
4    1    5 1
5    5    6 1
6    5    9 1
7    5   10 1
8    6    7 ar
9    6    8 ar
