@<TRIPOS>MOLECULE
ZINC000003823492
36    38    1     0     0
SMALL
USER_CHARGES
@<TRIPOS>ATOM
1      C1     -0.0173    1.4248    0.0099 C.3      1 ZINC000003823492    0.0300
2      O2      0.0021   -0.0041    0.0020 O.3      1 ZINC000003823492   -0.2800
3      C3      0.6238   -0.6164    1.0381 C.ar     1 ZINC000003823492    0.4700
4      C4      0.6938   -2.0162    1.1053 C.ar     1 ZINC000003823492   -0.1100
5      N5      0.2536   -3.0300    0.3194 N.2      1 ZINC000003823492   -0.4500
6      C6      0.5908   -4.1681    0.8515 C.2      1 ZINC000003823492    0.2800
7      N7      1.2704   -3.9557    2.0153 N.pl3    1 ZINC000003823492   -0.4600
8      C8      1.8140   -4.9872    2.9023 C.3      1 ZINC000003823492    0.3200
9      H9      2.7560   -4.6573    3.3405 H        1 ZINC000003823492    0.1300
10     O10     1.9928   -6.2292    2.1882 O.3      1 ZINC000003823492   -0.3500
11     C11     2.0259   -7.2775    3.1712 C.3      1 ZINC000003823492    0.0600
12     H12     3.0565   -7.4802    3.4623 H        1 ZINC000003823492    0.1000
13     C13     1.3875   -8.5457    2.6010 C.3      1 ZINC000003823492    0.0800
14     O14     2.1959   -9.0479    1.5349 O.3      1 ZINC000003823492   -0.5600
15     C15     1.2235   -6.7864    4.3917 C.3      1 ZINC000003823492    0.0500
16     H16     0.3497   -7.4178    4.5530 H        1 ZINC000003823492    0.0900
17     O17     2.0484   -6.7687    5.5584 O.3      1 ZINC000003823492   -0.5500
18     C18     0.7926   -5.3471    4.0111 C.3      1 ZINC000003823492    0.0700
19     H19     0.8854   -4.6749    4.8641 H        1 ZINC000003823492    0.1000
20     O20    -0.5405   -5.3331    3.4967 O.3      1 ZINC000003823492   -0.5400
21     C21     1.3514   -2.5990    2.2026 C.ar     1 ZINC000003823492    0.3500
22     N22     1.8810   -1.8116    3.1323 N.ar     1 ZINC000003823492   -0.6000
23     C23     1.7920   -0.4955    3.0289 C.ar     1 ZINC000003823492    0.6200
24     N24     2.3570    0.2931    4.0178 N.pl3    1 ZINC000003823492   -0.8100
25     N25     1.1840    0.0949    2.0077 N.ar     1 ZINC000003823492   -0.6200
26     H26     1.0053    1.8021    0.0021 H        1 ZINC000003823492    0.0600
27     H27    -0.5445    1.7859   -0.8732 H        1 ZINC000003823492    0.1000
28     H28    -0.5275    1.7763    0.9067 H        1 ZINC000003823492    0.0600
29     H29     0.3655   -5.1383    0.4338 H        1 ZINC000003823492    0.2200
30     H30     1.3120   -9.2987    3.3854 H        1 ZINC000003823492    0.0600
31     H31     0.3918   -8.3131    2.2235 H        1 ZINC000003823492    0.0600
32     H32     1.8508   -9.8530    1.1253 H        1 ZINC000003823492    0.3900
33     H33     2.3938   -7.6364    5.8091 H        1 ZINC000003823492    0.3900
34     H34    -1.2080   -5.6402    4.1254 H        1 ZINC000003823492    0.3900
35     H35     2.8083   -0.1213    4.7698 H        1 ZINC000003823492    0.4200
36     H36     2.3012    1.2596    3.9583 H        1 ZINC000003823492    0.4200
@<TRIPOS>BOND
1     1     2     1
2     1     26    1
3     1     27    1
4     1     28    1
5     2     3     1
6     3     25    ar
7     3     4     ar
8     4     21    ar
9     4     5     1
10    5     6     2
11    6     7     1
12    6     29    1
13    7     8     1
14    7     21    1
15    8     9     1
16    8     18    1
17    8     10    1
18    10    11    1
19    11    12    1
20    11    13    1
21    11    15    1
22    13    14    1
23    13    30    1
24    13    31    1
25    14    32    1
26    15    16    1
27    15    17    1
28    15    18    1
29    17    33    1
30    18    19    1
31    18    20    1
32    20    34    1
33    21    22    ar
34    22    23    ar
35    23    24    1
36    23    25    ar
37    24    35    1
38    24    36    1
@<TRIPOS>SUBSTRUCTURE
1   ZINC000003823492 1     RESIDUE    1   A     ZIN   1
