@<TRIPOS>MOLECULE
ZINC000022002218
45    47    1     0     0
SMALL
USER_CHARGES
@<TRIPOS>ATOM
1      C1     -0.0818    2.0617   -0.2886 C.3      1 ZINC000022002218   -0.1400
2      C2      0.0068    0.5393   -0.1641 C.3      1 ZINC000022002218   -0.0600
3      C3     -1.3822   -0.0399   -0.0853 C.2      1 ZINC000022002218   -0.0800
4      C4     -2.1098   -0.2577    1.0296 C.2      1 ZINC000022002218    0.0100
5      C5     -1.6619    0.0445    2.4364 C.3      1 ZINC000022002218   -0.0900
6      N6     -3.3195   -0.7959    0.6813 N.pl3    1 ZINC000022002218   -0.5200
7      C7     -3.4023   -0.9385   -0.6453 C.2      1 ZINC000022002218    0.0800
8      C8     -2.2139   -0.4720   -1.1944 C.2      1 ZINC000022002218   -0.2700
9      C9     -1.9714   -0.4781   -2.6409 C.2      1 ZINC000022002218    0.4400
10     O10    -0.8766   -0.2648   -3.1187 O.2      1 ZINC000022002218   -0.4500
11     C11    -3.1940   -0.7721   -3.4985 C.3      1 ZINC000022002218   -0.1600
12     H12    -3.8235    0.1158   -3.5570 H        1 ZINC000022002218    0.1300
13     C13    -2.7508   -1.1832   -4.9040 C.3      1 ZINC000022002218    0.0000
14     N14    -3.9317   -1.3401   -5.7635 N.4      1 ZINC000022002218   -0.3900
15     H15    -4.5790   -1.9826   -5.3318 H        1 ZINC000022002218    0.4200
16     C16    -3.5189   -1.8658   -7.0721 C.3      1 ZINC000022002218   -0.0400
17     C17    -4.7511   -2.0287   -7.9656 C.3      1 ZINC000022002218    0.0400
18     O18    -5.4125   -0.7667   -8.0913 O.3      1 ZINC000022002218   -0.3600
19     C19    -5.8133   -0.2017   -6.8399 C.3      1 ZINC000022002218    0.0400
20     C20    -4.5832   -0.0355   -5.9441 C.3      1 ZINC000022002218   -0.0500
21     C21    -3.9764   -1.9172   -2.8477 C.3      1 ZINC000022002218   -0.1100
22     C22    -4.5287   -1.4863   -1.4835 C.3      1 ZINC000022002218   -0.0600
23     H23     0.9228    2.4806   -0.3456 H        1 ZINC000022002218    0.0600
24     H24    -0.6353    2.3208   -1.1912 H        1 ZINC000022002218    0.0500
25     H25    -0.5961    2.4681    0.5823 H        1 ZINC000022002218    0.0500
26     H26     0.5211    0.1329   -1.0350 H        1 ZINC000022002218    0.0800
27     H27     0.5602    0.2802    0.7384 H        1 ZINC000022002218    0.0700
28     H28    -1.9528    1.0614    2.6998 H        1 ZINC000022002218    0.0800
29     H29    -2.1310   -0.6576    3.1257 H        1 ZINC000022002218    0.0700
30     H30    -0.5781   -0.0518    2.5013 H        1 ZINC000022002218    0.0900
31     H31    -4.0178   -1.0398    1.3087 H        1 ZINC000022002218    0.4200
32     H32    -2.0991   -0.4142   -5.3189 H        1 ZINC000022002218    0.1400
33     H33    -2.2105   -2.1284   -4.8527 H        1 ZINC000022002218    0.1400
34     H34    -2.8204   -1.1714   -7.5390 H        1 ZINC000022002218    0.1400
35     H35    -3.0357   -2.8337   -6.9391 H        1 ZINC000022002218    0.1400
36     H36    -4.4425   -2.3777   -8.9510 H        1 ZINC000022002218    0.1400
37     H37    -5.4316   -2.7534   -7.5186 H        1 ZINC000022002218    0.0800
38     H38    -6.2734    0.7715   -7.0106 H        1 ZINC000022002218    0.1400
39     H39    -6.5301   -0.8639   -6.3544 H        1 ZINC000022002218    0.0800
40     H40    -4.8901    0.3553   -4.9739 H        1 ZINC000022002218    0.1400
41     H41    -3.8842    0.6582   -6.4113 H        1 ZINC000022002218    0.1400
42     H42    -4.8054   -2.1997   -3.4966 H        1 ZINC000022002218    0.0700
43     H43    -3.3158   -2.7743   -2.7169 H        1 ZINC000022002218    0.0900
44     H44    -4.9665   -2.3479   -0.9794 H        1 ZINC000022002218    0.1000
45     H45    -5.2911   -0.7203   -1.6250 H        1 ZINC000022002218    0.1000
@<TRIPOS>BOND
1     1     2     1
2     1     23    1
3     1     24    1
4     1     25    1
5     2     3     1
6     2     26    1
7     2     27    1
8     3     8     1
9     3     4     2
10    4     5     1
11    4     6     1
12    5     28    1
13    5     29    1
14    5     30    1
15    6     7     1
16    6     31    1
17    7     22    1
18    7     8     2
19    8     9     1
20    9     10    2
21    9     11    1
22    11    12    1
23    11    13    1
24    11    21    1
25    13    14    1
26    13    32    1
27    13    33    1
28    14    15    1
29    14    20    1
30    14    16    1
31    16    17    1
32    16    34    1
33    16    35    1
34    17    18    1
35    17    36    1
36    17    37    1
37    18    19    1
38    19    20    1
39    19    38    1
40    19    39    1
41    20    40    1
42    20    41    1
43    21    22    1
44    21    42    1
45    21    43    1
46    22    44    1
47    22    45    1
@<TRIPOS>SUBSTRUCTURE
1   ZINC000022002218 1     RESIDUE    1   A     ZIN   1
