@<TRIPOS>MOLECULE
ZINC000004097286
65    69    1     0     0
SMALL
USER_CHARGES
@<TRIPOS>ATOM
1      C1      0.2995    2.0636    0.2109 C.3      1 ZINC000004097286   -0.1500
2      C2      0.2188    0.5387    0.1159 C.3      1 ZINC000004097286   -0.1200
3      C3      0.8973    0.0714   -1.1734 C.3      1 ZINC000004097286   -0.1200
4      C4      0.8166   -1.4535   -1.2684 C.3      1 ZINC000004097286    0.2300
5      H5      1.2285   -1.9072   -0.3670 H        1 ZINC000004097286    0.0800
6      O6     -0.5534   -1.8675   -1.4508 O.3      1 ZINC000004097286   -0.3600
7      C7     -0.4350   -3.1899   -2.0249 C.3      1 ZINC000004097286    0.0700
8      H8     -1.3275   -3.4958   -2.5707 H        1 ZINC000004097286    0.1300
9      C9     -0.0597   -4.1753   -0.8918 C.3      1 ZINC000004097286   -0.1400
10     C10     1.4203   -4.4821   -1.0941 C.3      1 ZINC000004097286   -0.0900
11     H11     2.0252   -3.7357   -0.5793 H        1 ZINC000004097286    0.0800
12     C12     1.8808   -5.8730   -0.7037 C.3      1 ZINC000004097286   -0.0800
13     H13     1.3420   -6.6165   -1.2911 H        1 ZINC000004097286    0.1000
14     C14     1.6257   -6.1097    0.7860 C.3      1 ZINC000004097286   -0.1100
15     C15     2.0497   -7.5335    1.1609 C.3      1 ZINC000004097286   -0.0900
16     C16     3.4970   -7.7196    0.7454 C.2      1 ZINC000004097286   -0.0300
17     C17     4.3660   -8.1796    1.6346 C.2      1 ZINC000004097286   -0.2300
18     C18     5.7820   -8.3544    1.2759 C.2      1 ZINC000004097286    0.4100
19     O19     6.5749   -8.8129    2.0770 O.2      1 ZINC000004097286   -0.4600
20     C20     6.2178   -7.9613   -0.0748 C.2      1 ZINC000004097286   -0.2200
21     C21     5.3315   -7.5108   -0.9488 C.2      1 ZINC000004097286   -0.0600
22     C22     3.8752   -7.3739   -0.6645 C.3      1 ZINC000004097286   -0.0100
23     C23     3.1249   -8.3276   -1.5965 C.3      1 ZINC000004097286   -0.1300
24     C24     3.3851   -5.9647   -1.0066 C.3      1 ZINC000004097286   -0.0500
25     H25     3.9096   -5.2411   -0.3826 H        1 ZINC000004097286    0.0800
26     C26     3.6793   -5.6693   -2.4741 C.3      1 ZINC000004097286    0.1100
27     H27     4.7588   -5.6528   -2.6239 H        1 ZINC000004097286    0.0600
28     O28     3.1129   -6.7042   -3.2804 O.3      1 ZINC000004097286   -0.5400
29     C29     3.0920   -4.3180   -2.9106 C.3      1 ZINC000004097286   -0.1300
30     C30     1.6079   -4.3421   -2.6278 C.3      1 ZINC000004097286   -0.0500
31     C31     0.9566   -5.5446   -3.3141 C.3      1 ZINC000004097286   -0.1500
32     C32     0.8220   -3.0520   -2.9423 C.3      1 ZINC000004097286    0.0500
33     C33     0.4543   -2.9398   -4.3994 C.2      1 ZINC000004097286    0.3700
34     O34     0.2212   -3.9354   -5.0418 O.2      1 ZINC000004097286   -0.4000
35     C35     0.3775   -1.5850   -5.0549 C.3      1 ZINC000004097286    0.0300
36     O36     0.0133   -1.7402   -6.4280 O.3      1 ZINC000004097286   -0.5600
37     O37     1.5327   -1.9151   -2.4255 O.3      1 ZINC000004097286   -0.3600
38     H38     1.3449    2.3724    0.2180 H        1 ZINC000004097286    0.0600
39     H39    -0.2049    2.5083   -0.6469 H        1 ZINC000004097286    0.0600
40     H40    -0.1839    2.3965    1.1294 H        1 ZINC000004097286    0.0600
41     H41     0.7233    0.0940    0.9737 H        1 ZINC000004097286    0.0600
42     H42    -0.8265    0.2299    0.1088 H        1 ZINC000004097286    0.0700
43     H43     0.3929    0.5161   -2.0312 H        1 ZINC000004097286    0.0800
44     H44     1.9427    0.3802   -1.1663 H        1 ZINC000004097286    0.0900
45     H45    -0.2189   -3.7100    0.0810 H        1 ZINC000004097286    0.0900
46     H46    -0.6491   -5.0883   -0.9752 H        1 ZINC000004097286    0.0900
47     H47     2.2025   -5.3935    1.3712 H        1 ZINC000004097286    0.0700
48     H48     0.5644   -5.9795    0.9976 H        1 ZINC000004097286    0.0800
49     H49     1.9549   -7.6743    2.2376 H        1 ZINC000004097286    0.0800
50     H50     1.4211   -8.2544    0.6382 H        1 ZINC000004097286    0.0900
51     H51     4.0316   -8.4278    2.6311 H        1 ZINC000004097286    0.1400
52     H52     7.2587   -8.0401   -0.3517 H        1 ZINC000004097286    0.1400
53     H53     5.6857   -7.2245   -1.9281 H        1 ZINC000004097286    0.1300
54     H54     3.1378   -9.3326   -1.1749 H        1 ZINC000004097286    0.0400
55     H55     2.0935   -7.9925   -1.7055 H        1 ZINC000004097286    0.0800
56     H56     3.6090   -8.3370   -2.5730 H        1 ZINC000004097286    0.1000
57     H57     3.2581   -6.5874   -4.2293 H        1 ZINC000004097286    0.3700
58     H58     3.5436   -3.5126   -2.3314 H        1 ZINC000004097286    0.0800
59     H59     3.2750   -4.1597   -3.9734 H        1 ZINC000004097286    0.0700
60     H60     1.2849   -6.4627   -2.8270 H        1 ZINC000004097286    0.1000
61     H61    -0.1278   -5.4618   -3.2401 H        1 ZINC000004097286    0.0400
62     H62     1.2485   -5.5658   -4.3640 H        1 ZINC000004097286    0.0700
63     H63    -0.3713   -0.9774   -4.5468 H        1 ZINC000004097286    0.0800
64     H64     1.3486   -1.0943   -4.9899 H        1 ZINC000004097286    0.0900
65     H65    -0.0551   -0.9066   -6.9134 H        1 ZINC000004097286    0.3900
@<TRIPOS>BOND
1     1     2     1
2     1     38    1
3     1     39    1
4     1     40    1
5     2     3     1
6     2     41    1
7     2     42    1
8     3     4     1
9     3     43    1
10    3     44    1
11    4     5     1
12    4     37    1
13    4     6     1
14    6     7     1
15    7     8     1
16    7     32    1
17    7     9     1
18    9     10    1
19    9     45    1
20    9     46    1
21    10    11    1
22    10    30    1
23    10    12    1
24    12    13    1
25    12    24    1
26    12    14    1
27    14    15    1
28    14    47    1
29    14    48    1
30    15    16    1
31    15    49    1
32    15    50    1
33    16    22    1
34    16    17    2
35    17    18    1
36    17    51    1
37    18    19    2
38    18    20    1
39    20    21    2
40    20    52    1
41    21    22    1
42    21    53    1
43    22    23    1
44    22    24    1
45    23    54    1
46    23    55    1
47    23    56    1
48    24    25    1
49    24    26    1
50    26    27    1
51    26    28    1
52    26    29    1
53    28    57    1
54    29    30    1
55    29    58    1
56    29    59    1
57    30    31    1
58    30    32    1
59    31    60    1
60    31    61    1
61    31    62    1
62    32    33    1
63    32    37    1
64    33    34    2
65    33    35    1
66    35    36    1
67    35    63    1
68    35    64    1
69    36    65    1
@<TRIPOS>SUBSTRUCTURE
1   ZINC000004097286 1     RESIDUE    1   A     ZIN   1
