@<TRIPOS>MOLECULE
ZINC000000001370
32    35    1     0     0
SMALL
USER_CHARGES
@<TRIPOS>ATOM
1      Cl1    -0.4163    0.2919    0.6792 Cl       1 ZINC000000001370   -0.0400
2      C2     -0.2738    2.0114    0.4879 C.ar     1 ZINC000000001370   -0.0300
3      C3     -1.4098    2.8044    0.5037 C.ar     1 ZINC000000001370   -0.0700
4      C4     -1.2996    4.1695    0.3377 C.ar     1 ZINC000000001370   -0.1100
5      C5     -0.0534    4.7607    0.1620 C.ar     1 ZINC000000001370    0.1500
6      C6      1.0990    3.9715    0.1702 C.ar     1 ZINC000000001370   -0.0900
7      C7      0.9684    2.5836    0.3268 C.ar     1 ZINC000000001370   -0.0600
8      C8      2.4518    4.5294    0.0665 C.2      1 ZINC000000001370    0.2600
9      C9      3.4722    3.9310    0.9584 C.ar     1 ZINC000000001370   -0.0800
10     C10     4.8217    3.9787    0.6094 C.ar     1 ZINC000000001370   -0.0700
11     C11     5.7674    3.4196    1.4442 C.ar     1 ZINC000000001370   -0.1300
12     C12     5.3793    2.8126    2.6253 C.ar     1 ZINC000000001370   -0.1000
13     C13     4.0422    2.7617    2.9767 C.ar     1 ZINC000000001370   -0.1200
14     C14     3.0877    3.3227    2.1531 C.ar     1 ZINC000000001370   -0.0900
15     N15     2.8605    5.4751   -0.7051 N.2      1 ZINC000000001370   -0.4800
16     C16     1.9655    6.1387   -1.6596 C.3      1 ZINC000000001370    0.1200
17     C17     0.8567    6.7908   -0.8732 C.2      1 ZINC000000001370    0.1700
18     N18     0.5386    8.0530   -0.8487 N.2      1 ZINC000000001370   -0.2700
19     N19    -0.4358    8.2377   -0.0272 N.2      1 ZINC000000001370   -0.2800
20     C20    -0.7941    7.0973    0.5029 C.2      1 ZINC000000001370    0.1700
21     N21     0.0024    6.1403   -0.0424 N.pl3    1 ZINC000000001370   -0.4300
22     H22    -2.3811    2.3540    0.6456 H        1 ZINC000000001370    0.1500
23     H23    -2.1881    4.7836    0.3438 H        1 ZINC000000001370    0.1500
24     H24     1.8486    1.9579    0.3131 H        1 ZINC000000001370    0.1500
25     H25     5.1258    4.4520   -0.3125 H        1 ZINC000000001370    0.1400
26     H26     6.8127    3.4556    1.1750 H        1 ZINC000000001370    0.1300
27     H27     6.1232    2.3763    3.2755 H        1 ZINC000000001370    0.1300
28     H28     3.7452    2.2858    3.8996 H        1 ZINC000000001370    0.1300
29     H29     2.0442    3.2827    2.4286 H        1 ZINC000000001370    0.1200
30     H30     2.5167    6.8954   -2.2179 H        1 ZINC000000001370    0.1400
31     H31     1.5476    5.4031   -2.3469 H        1 ZINC000000001370    0.1000
32     H32    -1.5742    6.9446    1.2339 H        1 ZINC000000001370    0.2300
@<TRIPOS>BOND
1     1     2     1
2     2     7     ar
3     2     3     ar
4     3     4     ar
5     3     22    1
6     4     5     ar
7     4     23    1
8     5     21    1
9     5     6     ar
10    6     7     ar
11    6     8     1
12    7     24    1
13    8     9     1
14    8     15    2
15    9     14    ar
16    9     10    ar
17    10    11    ar
18    10    25    1
19    11    12    ar
20    11    26    1
21    12    13    ar
22    12    27    1
23    13    14    ar
24    13    28    1
25    14    29    1
26    15    16    1
27    16    17    1
28    16    30    1
29    16    31    1
30    17    21    1
31    17    18    2
32    18    19    1
33    19    20    2
34    20    21    1
35    20    32    1
@<TRIPOS>SUBSTRUCTURE
1   ZINC000000001370 1     RESIDUE    1   A     ZIN   1
