@<TRIPOS>MOLECULE
ZINC000004474414
73    75    1     0     0
SMALL
USER_CHARGES
@<TRIPOS>ATOM
1      C1     -0.0160    1.3287    0.0093 C.2      1 ZINC000004474414   -0.1800
2      C2      0.0021   -0.0041    0.0020 C.2      1 ZINC000004474414   -0.0900
3      C3     -1.2778   -0.8160    0.0034 C.3      1 ZINC000004474414   -0.0800
4      C4     -1.1451   -1.9243    1.0529 C.3      1 ZINC000004474414   -0.1100
5      C5      0.0753   -2.7908    0.7399 C.3      1 ZINC000004474414    0.1100
6      H6      0.0097   -3.1520   -0.2865 H        1 ZINC000004474414    0.0600
7      O7      0.1089   -3.9049    1.6342 O.3      1 ZINC000004474414   -0.5700
8      C8      1.3550   -1.9655    0.9085 C.3      1 ZINC000004474414   -0.1100
9      C9      1.2709   -0.7615   -0.0142 C.2      1 ZINC000004474414   -0.0900
10     C10     2.3048   -0.4008   -0.8021 C.2      1 ZINC000004474414   -0.1100
11     C11     2.1853    0.7667   -1.6784 C.2      1 ZINC000004474414   -0.1500
12     C12     3.2069    1.1231   -2.4569 C.2      1 ZINC000004474414   -0.0800
13     C13     4.5193    0.3527   -2.4834 C.3      1 ZINC000004474414   -0.0900
14     C14     4.9242    0.0243   -3.9191 C.3      1 ZINC000004474414   -0.1200
15     C15     4.8399    1.2588   -4.8324 C.3      1 ZINC000004474414   -0.1100
16     C16     3.4135    1.7556   -4.7966 C.3      1 ZINC000004474414   -0.0500
17     C17     2.4635    0.5837   -5.0511 C.3      1 ZINC000004474414   -0.1500
18     C18     3.1429    2.3081   -3.3741 C.3      1 ZINC000004474414   -0.0600
19     H19     3.8895    3.0524   -3.0973 H        1 ZINC000004474414    0.0800
20     C20     1.7715    2.9605   -3.5630 C.3      1 ZINC000004474414   -0.1200
21     C21     1.9164    3.6723   -4.9377 C.3      1 ZINC000004474414   -0.1200
22     C22     3.0309    2.9176   -5.7001 C.3      1 ZINC000004474414   -0.0700
23     H23     3.8894    3.5700   -5.8591 H        1 ZINC000004474414    0.0700
24     C24     2.5022    2.4004   -7.0394 C.3      1 ZINC000004474414   -0.0800
25     H25     1.6524    1.7407   -6.8643 H        1 ZINC000004474414    0.0800
26     C26     3.6083    1.6271   -7.7600 C.3      1 ZINC000004474414   -0.1600
27     C27     2.0601    3.5828   -7.9040 C.3      1 ZINC000004474414   -0.1200
28     C28     1.4172    3.0614   -9.1908 C.3      1 ZINC000004474414   -0.1200
29     C29     0.9752    4.2438  -10.0554 C.3      1 ZINC000004474414   -0.1400
30     C30     0.3322    3.7224  -11.3421 C.3      1 ZINC000004474414    0.1200
31     C31     0.0034    4.9003  -12.2615 C.3      1 ZINC000004474414   -0.1800
32     C32     1.3044    2.7777  -12.0515 C.3      1 ZINC000004474414   -0.1400
33     O33    -0.8692    3.0177  -11.0227 O.3      1 ZINC000004474414   -0.5600
34     H34     0.9119    1.8814    0.0035 H        1 ZINC000004474414    0.1100
35     H35    -0.9585    1.8559    0.0167 H        1 ZINC000004474414    0.1000
36     H36    -2.1208   -0.1721    0.2540 H        1 ZINC000004474414    0.0800
37     H37    -1.4329   -1.2586   -0.9805 H        1 ZINC000004474414    0.0800
38     H38    -1.0282   -1.4767    2.0398 H        1 ZINC000004474414    0.0700
39     H39    -2.0419   -2.5437    1.0411 H        1 ZINC000004474414    0.0700
40     H40     0.8583   -4.4996    1.4937 H        1 ZINC000004474414    0.3800
41     H41     1.4443   -1.6337    1.9429 H        1 ZINC000004474414    0.0800
42     H42     2.2206   -2.5713    0.6406 H        1 ZINC000004474414    0.0700
43     H43     3.2207   -0.9730   -0.7867 H        1 ZINC000004474414    0.1200
44     H44     1.2694    1.3389   -1.6938 H        1 ZINC000004474414    0.1300
45     H45     5.2993    0.9565   -2.0195 H        1 ZINC000004474414    0.0700
46     H46     4.4027   -0.5745   -1.9223 H        1 ZINC000004474414    0.0700
47     H47     5.9476   -0.3508   -3.9225 H        1 ZINC000004474414    0.0600
48     H48     4.2622   -0.7501   -4.3066 H        1 ZINC000004474414    0.0700
49     H49     5.5116    2.0358   -4.4672 H        1 ZINC000004474414    0.0600
50     H50     5.1104    0.9839   -5.8519 H        1 ZINC000004474414    0.0700
51     H51     2.6144   -0.1790   -4.2871 H        1 ZINC000004474414    0.0600
52     H52     1.4329    0.9366   -5.0135 H        1 ZINC000004474414    0.0500
53     H53     2.6663    0.1584   -6.0340 H        1 ZINC000004474414    0.0600
54     H54     0.9863    2.2053   -3.5998 H        1 ZINC000004474414    0.0700
55     H55     1.5759    3.6843   -2.7718 H        1 ZINC000004474414    0.0600
56     H56     0.9783    3.6145   -5.4899 H        1 ZINC000004474414    0.0700
57     H57     2.2017    4.7141   -4.7916 H        1 ZINC000004474414    0.0600
58     H58     4.4581    2.2869   -7.9352 H        1 ZINC000004474414    0.0500
59     H59     3.9232    0.7847   -7.1441 H        1 ZINC000004474414    0.0600
60     H60     3.2316    1.2586   -8.7142 H        1 ZINC000004474414    0.0500
61     H61     1.3364    4.1845   -7.3542 H        1 ZINC000004474414    0.0600
62     H62     2.9270    4.1949   -8.1532 H        1 ZINC000004474414    0.0600
63     H63     2.1409    2.4597   -9.7406 H        1 ZINC000004474414    0.0700
64     H64     0.5504    2.4494   -8.9417 H        1 ZINC000004474414    0.0700
65     H65     0.2515    4.8455   -9.5056 H        1 ZINC000004474414    0.0600
66     H66     1.8420    4.8559  -10.3045 H        1 ZINC000004474414    0.0700
67     H67     0.9198    5.4379  -12.5052 H        1 ZINC000004474414    0.0700
68     H68    -0.4546    4.5289  -13.1782 H        1 ZINC000004474414    0.0600
69     H69    -0.6892    5.5734  -11.7561 H        1 ZINC000004474414    0.0600
70     H70     1.5387    1.9385  -11.3965 H        1 ZINC000004474414    0.0700
71     H71     0.8464    2.4062  -12.9682 H        1 ZINC000004474414    0.0600
72     H72     2.2208    3.3152  -12.2952 H        1 ZINC000004474414    0.0700
73     H73    -1.5326    3.5563  -10.5701 H        1 ZINC000004474414    0.3700
@<TRIPOS>BOND
1     1     2     2
2     1     34    1
3     1     35    1
4     2     9     1
5     2     3     1
6     3     4     1
7     3     36    1
8     3     37    1
9     4     5     1
10    4     38    1
11    4     39    1
12    5     6     1
13    5     7     1
14    5     8     1
15    7     40    1
16    8     9     1
17    8     41    1
18    8     42    1
19    9     10    2
20    10    11    1
21    10    43    1
22    11    12    2
23    11    44    1
24    12    18    1
25    12    13    1
26    13    14    1
27    13    45    1
28    13    46    1
29    14    15    1
30    14    47    1
31    14    48    1
32    15    16    1
33    15    49    1
34    15    50    1
35    16    22    1
36    16    17    1
37    16    18    1
38    17    51    1
39    17    52    1
40    17    53    1
41    18    19    1
42    18    20    1
43    20    21    1
44    20    54    1
45    20    55    1
46    21    22    1
47    21    56    1
48    21    57    1
49    22    23    1
50    22    24    1
51    24    25    1
52    24    26    1
53    24    27    1
54    26    58    1
55    26    59    1
56    26    60    1
57    27    28    1
58    27    61    1
59    27    62    1
60    28    29    1
61    28    63    1
62    28    64    1
63    29    30    1
64    29    65    1
65    29    66    1
66    30    31    1
67    30    32    1
68    30    33    1
69    31    67    1
70    31    68    1
71    31    69    1
72    32    70    1
73    32    71    1
74    32    72    1
75    33    73    1
@<TRIPOS>SUBSTRUCTURE
1   ZINC000004474414 1     RESIDUE    1   A     ZIN   1
