@<TRIPOS>MOLECULE
ZINC000011615927
75    78    1     0     0
SMALL
USER_CHARGES
@<TRIPOS>ATOM
1      C1     -0.1751    1.5958   -0.6812 C.3      1 ZINC000011615927   -0.1500
2      C2     -0.1253    0.0668   -0.7101 C.3      1 ZINC000011615927   -0.0400
3      C3      0.9357   -0.4276    0.2751 C.3      1 ZINC000011615927   -0.1500
4      C4     -1.4710   -0.4872   -0.3190 C.2      1 ZINC000011615927    0.1000
5      C5     -2.1032   -0.2640    0.8721 C.2      1 ZINC000011615927   -0.2100
6      C6     -1.6082    0.5481    1.9947 C.2      1 ZINC000011615927    0.6100
7      O7     -1.8726    1.7342    2.0505 O.2      1 ZINC000011615927   -0.5100
8      N8     -0.8618   -0.0221    2.9612 N.am     1 ZINC000011615927   -0.6700
9      C9     -0.3115    0.7666    3.9768 C.ar     1 ZINC000011615927    0.1500
10     C10     0.9411    0.4617    4.4934 C.ar     1 ZINC000011615927   -0.1500
11     C11     1.4818    1.2429    5.4958 C.ar     1 ZINC000011615927   -0.1000
12     C12     0.7772    2.3273    5.9855 C.ar     1 ZINC000011615927   -0.1400
13     C13    -0.4702    2.6336    5.4733 C.ar     1 ZINC000011615927   -0.1000
14     C14    -1.0141    1.8599    4.4668 C.ar     1 ZINC000011615927   -0.1200
15     C15    -3.3780   -0.9972    0.8082 C.2      1 ZINC000011615927   -0.0800
16     C16    -4.4209   -1.0680    1.8565 C.ar     1 ZINC000011615927   -0.0100
17     C17    -4.6909   -2.2785    2.4953 C.ar     1 ZINC000011615927   -0.1000
18     C18    -5.6637   -2.3379    3.4719 C.ar     1 ZINC000011615927   -0.1200
19     C19    -6.3711   -1.2003    3.8177 C.ar     1 ZINC000011615927   -0.1200
20     C20    -6.1081    0.0031    3.1879 C.ar     1 ZINC000011615927   -0.1200
21     C21    -5.1337    0.0768    2.2138 C.ar     1 ZINC000011615927   -0.1000
22     C22    -3.4008   -1.6050   -0.4322 C.2      1 ZINC000011615927    0.0700
23     C23    -4.4857   -2.4564   -0.9603 C.ar     1 ZINC000011615927   -0.0300
24     C24    -5.7950   -1.9731   -1.0097 C.ar     1 ZINC000011615927   -0.0600
25     C25    -6.8040   -2.7724   -1.5043 C.ar     1 ZINC000011615927   -0.1500
26     C26    -6.5207   -4.0531   -1.9519 C.ar     1 ZINC000011615927    0.1100
27     F27    -7.5132   -4.8318   -2.4354 F        1 ZINC000011615927   -0.1400
28     C28    -5.2232   -4.5379   -1.9057 C.ar     1 ZINC000011615927   -0.1500
29     C29    -4.2053   -3.7458   -1.4177 C.ar     1 ZINC000011615927   -0.0800
30     N30    -2.2440   -1.2759   -1.0900 N.pl3    1 ZINC000011615927   -0.4200
31     C31    -1.8931   -1.7270   -2.4389 C.3      1 ZINC000011615927    0.0900
32     C32    -2.3151   -0.6660   -3.4574 C.3      1 ZINC000011615927   -0.1700
33     C33    -2.0558   -1.1860   -4.8727 C.3      1 ZINC000011615927    0.1200
34     H34    -1.0117   -1.4853   -4.9642 H        1 ZINC000011615927    0.1100
35     O35    -2.8982   -2.3117   -5.1284 O.3      1 ZINC000011615927   -0.5500
36     C36    -2.3602   -0.0807   -5.8859 C.3      1 ZINC000011615927   -0.1800
37     C37    -1.9831   -0.5578   -7.2898 C.3      1 ZINC000011615927    0.1400
38     H38    -2.4941   -1.4965   -7.5040 H        1 ZINC000011615927    0.1000
39     O39    -0.5700   -0.7577   -7.3615 O.3      1 ZINC000011615927   -0.5400
40     C40    -2.4018    0.4966   -8.3164 C.3      1 ZINC000011615927   -0.2200
41     C41    -2.1429   -0.0250   -9.7064 C.2      1 ZINC000011615927    0.4900
42     O42    -1.6676   -1.1369   -9.8615 O.co2    1 ZINC000011615927   -0.6800
43     O43    -2.4088    0.6650  -10.6758 O.co2    1 ZINC000011615927   -0.7100
44     H44     0.7983    1.9965   -0.9641 H        1 ZINC000011615927    0.0600
45     H45    -0.9310    1.9480   -1.3831 H        1 ZINC000011615927    0.0600
46     H46    -0.4282    1.9320    0.3243 H        1 ZINC000011615927    0.0700
47     H47     0.1278   -0.2694   -1.7156 H        1 ZINC000011615927    0.0800
48     H48     0.6827   -0.0913    1.2806 H        1 ZINC000011615927    0.0600
49     H49     0.9713   -1.5168    0.2544 H        1 ZINC000011615927    0.0600
50     H50     1.9091   -0.0269   -0.0078 H        1 ZINC000011615927    0.0700
51     H51    -0.7061   -0.9795    2.9526 H        1 ZINC000011615927    0.4100
52     H52     1.4916   -0.3855    4.1118 H        1 ZINC000011615927    0.1200
53     H53     2.4558    1.0063    5.8979 H        1 ZINC000011615927    0.1200
54     H54     1.2020    2.9362    6.7699 H        1 ZINC000011615927    0.1200
55     H55    -1.0179    3.4812    5.8579 H        1 ZINC000011615927    0.1200
56     H56    -1.9883    2.0998    4.0670 H        1 ZINC000011615927    0.1400
57     H57    -4.1398   -3.1674    2.2257 H        1 ZINC000011615927    0.1200
58     H58    -5.8737   -3.2744    3.9671 H        1 ZINC000011615927    0.1200
59     H59    -7.1322   -1.2521    4.5822 H        1 ZINC000011615927    0.1200
60     H60    -6.6640    0.8876    3.4620 H        1 ZINC000011615927    0.1200
61     H61    -4.9290    1.0169    1.7232 H        1 ZINC000011615927    0.1200
62     H62    -6.0169   -0.9753   -0.6608 H        1 ZINC000011615927    0.1300
63     H63    -7.8170   -2.3998   -1.5426 H        1 ZINC000011615927    0.1400
64     H64    -5.0082   -5.5366   -2.2562 H        1 ZINC000011615927    0.1400
65     H65    -3.1945   -4.1245   -1.3825 H        1 ZINC000011615927    0.1300
66     H66    -0.8161   -1.8824   -2.5014 H        1 ZINC000011615927    0.0900
67     H67    -2.4084   -2.6629   -2.6546 H        1 ZINC000011615927    0.1100
68     H68    -3.3769   -0.4502   -3.3384 H        1 ZINC000011615927    0.0700
69     H69    -1.7387    0.2445   -3.2935 H        1 ZINC000011615927    0.0800
70     H70    -3.8434   -2.1182   -5.0642 H        1 ZINC000011615927    0.3700
71     H71    -3.4236    0.1566   -5.8562 H        1 ZINC000011615927    0.0700
72     H72    -1.7822    0.8094   -5.6372 H        1 ZINC000011615927    0.0700
73     H73    -0.0506    0.0379   -7.1814 H        1 ZINC000011615927    0.3500
74     H74    -3.4638    0.7137   -8.2018 H        1 ZINC000011615927    0.0600
75     H75    -1.8254    1.4078   -8.1570 H        1 ZINC000011615927    0.0600
@<TRIPOS>BOND
1     1     2     1
2     1     44    1
3     1     45    1
4     1     46    1
5     2     3     1
6     2     4     1
7     2     47    1
8     3     48    1
9     3     49    1
10    3     50    1
11    4     30    1
12    4     5     2
13    5     6     1
14    5     15    1
15    6     7     2
16    6     8     am
17    8     9     1
18    8     51    1
19    9     14    ar
20    9     10    ar
21    10    11    ar
22    10    52    1
23    11    12    ar
24    11    53    1
25    12    13    ar
26    12    54    1
27    13    14    ar
28    13    55    1
29    14    56    1
30    15    16    1
31    15    22    2
32    16    21    ar
33    16    17    ar
34    17    18    ar
35    17    57    1
36    18    19    ar
37    18    58    1
38    19    20    ar
39    19    59    1
40    20    21    ar
41    20    60    1
42    21    61    1
43    22    23    1
44    22    30    1
45    23    29    ar
46    23    24    ar
47    24    25    ar
48    24    62    1
49    25    26    ar
50    25    63    1
51    26    27    1
52    26    28    ar
53    28    29    ar
54    28    64    1
55    29    65    1
56    30    31    1
57    31    32    1
58    31    66    1
59    31    67    1
60    32    33    1
61    32    68    1
62    32    69    1
63    33    34    1
64    33    35    1
65    33    36    1
66    35    70    1
67    36    37    1
68    36    71    1
69    36    72    1
70    37    38    1
71    37    39    1
72    37    40    1
73    39    73    1
74    40    41    1
75    40    74    1
76    40    75    1
77    41    42    ar
78    41    43    ar
@<TRIPOS>SUBSTRUCTURE
1   ZINC000011615927 1     RESIDUE    1   A     ZIN   1
