@<TRIPOS>MOLECULE
ZINC000000007601
39    39    1     0     0
SMALL
USER_CHARGES
@<TRIPOS>ATOM
1      C1     -0.0187    1.5258    0.0104 C.3      1 ZINC000000007601   -0.1800
2      C2      0.0021   -0.0041    0.0020 C.3      1 ZINC000000007601    0.0600
3      C3      0.7421   -0.5109    1.2415 C.3      1 ZINC000000007601   -0.1800
4      C4     -1.4333   -0.5336    0.0129 C.3      1 ZINC000000007601   -0.1800
5      N5      0.6897   -0.4778   -1.2066 N.4      1 ZINC000000007601   -0.5000
6      H6      0.7033   -1.4867   -1.2121 H        1 ZINC000000007601    0.4300
7      H7      0.2017   -0.1436   -2.0240 H        1 ZINC000000007601    0.4300
8      C8      2.0678    0.0307   -1.2170 C.3      1 ZINC000000007601   -0.0500
9      C9      2.7840   -0.4628   -2.4758 C.3      1 ZINC000000007601    0.1400
10     H10     2.2568   -0.1017   -3.3589 H        1 ZINC000000007601    0.1300
11     O11     2.8033   -1.8916   -2.4837 O.3      1 ZINC000000007601   -0.5500
12     C12     4.1978    0.0589   -2.4865 C.ar     1 ZINC000000007601   -0.1500
13     C13     5.1924   -0.6296   -1.8173 C.ar     1 ZINC000000007601   -0.0900
14     C14     6.4895   -0.1537   -1.8260 C.ar     1 ZINC000000007601   -0.1400
15     C15     6.7933    1.0159   -2.5069 C.ar     1 ZINC000000007601    0.1300
16     O16     8.0684    1.4858   -2.5173 O.3      1 ZINC000000007601   -0.4900
17     C17     5.7932    1.7051   -3.1778 C.ar     1 ZINC000000007601   -0.1100
18     C18     6.1199    2.9759   -3.9190 C.3      1 ZINC000000007601    0.1200
19     O19     4.9327    3.4938   -4.5227 O.3      1 ZINC000000007601   -0.5800
20     C20     4.4991    1.2224   -3.1705 C.ar     1 ZINC000000007601   -0.0600
21     H21     1.0039    1.9031    0.0027 H        1 ZINC000000007601    0.0800
22     H22    -0.5459    1.8868   -0.8726 H        1 ZINC000000007601    0.0800
23     H23    -0.5289    1.8773    0.9072 H        1 ZINC000000007601    0.1100
24     H24     0.2319   -0.1594    2.1383 H        1 ZINC000000007601    0.1100
25     H25     0.7568   -1.6008    1.2356 H        1 ZINC000000007601    0.0800
26     H26     1.7647   -0.1336    1.2338 H        1 ZINC000000007601    0.0800
27     H27    -1.9605   -0.1726   -0.8702 H        1 ZINC000000007601    0.0800
28     H28    -1.4185   -1.6235    0.0069 H        1 ZINC000000007601    0.0800
29     H29    -1.9435   -0.1821    0.9097 H        1 ZINC000000007601    0.1100
30     H30     2.0530    1.1205   -1.2110 H        1 ZINC000000007601    0.1500
31     H31     2.5950   -0.3304   -0.3340 H        1 ZINC000000007601    0.1400
32     H32     3.2576   -2.2830   -1.7250 H        1 ZINC000000007601    0.3900
33     H33     4.9552   -1.5401   -1.2870 H        1 ZINC000000007601    0.1300
34     H34     7.2661   -0.6918   -1.3028 H        1 ZINC000000007601    0.1400
35     H35     8.6041    1.1534   -3.2506 H        1 ZINC000000007601    0.4000
36     H36     6.5228    3.7101   -3.2214 H        1 ZINC000000007601    0.0700
37     H37     6.8588    2.7658   -4.6923 H        1 ZINC000000007601    0.0700
38     H38     5.0685    4.3133   -5.0178 H        1 ZINC000000007601    0.3900
39     H39     3.7204    1.7582   -3.6928 H        1 ZINC000000007601    0.1400
@<TRIPOS>BOND
1     1     2     1
2     1     21    1
3     1     22    1
4     1     23    1
5     2     3     1
6     2     4     1
7     2     5     1
8     3     24    1
9     3     25    1
10    3     26    1
11    4     27    1
12    4     28    1
13    4     29    1
14    5     6     1
15    5     7     1
16    5     8     1
17    8     9     1
18    8     30    1
19    8     31    1
20    9     10    1
21    9     11    1
22    9     12    1
23    11    32    1
24    12    20    ar
25    12    13    ar
26    13    14    ar
27    13    33    1
28    14    15    ar
29    14    34    1
30    15    16    1
31    15    17    ar
32    16    35    1
33    17    18    1
34    17    20    ar
35    18    19    1
36    18    36    1
37    18    37    1
38    19    38    1
39    20    39    1
@<TRIPOS>SUBSTRUCTURE
1   ZINC000000007601 1     RESIDUE    1   A     ZIN   1
