@<TRIPOS>MOLECULE
ZINC000000009342
44    45    1     0     0
SMALL
USER_CHARGES
@<TRIPOS>ATOM
1      C1     -0.2084    1.0168    0.5828 C.3      1 ZINC000000009342    0.0100
2      N2     -0.1846   -0.4072    0.2231 N.3      1 ZINC000000009342   -0.5300
3      C3      0.3747   -1.2165    1.3141 C.3      1 ZINC000000009342    0.0200
4      C4     -1.5253   -0.8789   -0.1483 C.3      1 ZINC000000009342    0.0600
5      C5     -1.9710   -0.1854   -1.4372 C.3      1 ZINC000000009342   -0.0300
6      H6     -1.8776    0.8942   -1.3198 H        1 ZINC000000009342    0.0900
7      C7     -3.4078   -0.5368   -1.7257 C.ar     1 ZINC000000009342   -0.0800
8      C8     -3.8112   -1.8592   -1.7107 C.ar     1 ZINC000000009342   -0.0800
9      C9     -5.1277   -2.1840   -1.9748 C.ar     1 ZINC000000009342   -0.1500
10     C10    -6.0453   -1.1820   -2.2550 C.ar     1 ZINC000000009342    0.1000
11     O11    -7.3411   -1.4989   -2.5147 O.3      1 ZINC000000009342   -0.5000
12     C12    -5.6381    0.1442   -2.2690 C.ar     1 ZINC000000009342   -0.1500
13     C13    -4.3215    0.4641   -1.9995 C.ar     1 ZINC000000009342   -0.1000
14     C14    -1.0892   -0.6504   -2.5978 C.3      1 ZINC000000009342    0.1600
15     O15    -1.0946   -2.0782   -2.6577 O.3      1 ZINC000000009342   -0.5600
16     C16    -1.6328   -0.0829   -3.9106 C.3      1 ZINC000000009342   -0.1500
17     C17    -0.7510   -0.5479   -5.0712 C.3      1 ZINC000000009342   -0.1200
18     C18     0.6801   -0.0519   -4.8550 C.3      1 ZINC000000009342   -0.1200
19     C19     1.2237   -0.6195   -3.5422 C.3      1 ZINC000000009342   -0.1200
20     C20     0.3419   -0.1545   -2.3816 C.3      1 ZINC000000009342   -0.1600
21     H21     0.8069    1.3574    0.7856 H        1 ZINC000000009342    0.0700
22     H22    -0.6270    1.5930   -0.2423 H        1 ZINC000000009342    0.0700
23     H23    -0.8229    1.1567    1.4722 H        1 ZINC000000009342    0.0300
24     H24    -0.2743   -1.1477    2.1871 H        1 ZINC000000009342    0.0300
25     H25     0.4460   -2.2564    0.9954 H        1 ZINC000000009342    0.0700
26     H26     1.3675   -0.8459    1.5693 H        1 ZINC000000009342    0.0700
27     H27    -1.5003   -1.9572   -0.3059 H        1 ZINC000000009342    0.0900
28     H28    -2.2274   -0.6448    0.6518 H        1 ZINC000000009342    0.0300
29     H29    -3.0965   -2.6389   -1.4925 H        1 ZINC000000009342    0.1400
30     H30    -5.4422   -3.2171   -1.9636 H        1 ZINC000000009342    0.1300
31     H31    -7.9051   -1.5231   -1.7296 H        1 ZINC000000009342    0.3900
32     H32    -6.3505    0.9260   -2.4872 H        1 ZINC000000009342    0.1300
33     H33    -4.0041    1.4963   -2.0100 H        1 ZINC000000009342    0.1200
34     H34    -0.5549   -2.4439   -3.3719 H        1 ZINC000000009342    0.3700
35     H35    -2.6524   -0.4362   -4.0646 H        1 ZINC000000009342    0.0700
36     H36    -1.6287    1.0062   -3.8649 H        1 ZINC000000009342    0.0700
37     H37    -0.7551   -1.6370   -5.1169 H        1 ZINC000000009342    0.0600
38     H38    -1.1383   -0.1436   -6.0064 H        1 ZINC000000009342    0.0600
39     H39     1.3083   -0.3833   -5.6818 H        1 ZINC000000009342    0.0600
40     H40     0.6842    1.0371   -4.8093 H        1 ZINC000000009342    0.0600
41     H41     1.2196   -1.7086   -3.5879 H        1 ZINC000000009342    0.0600
42     H42     2.2432   -0.2662   -3.3882 H        1 ZINC000000009342    0.0600
43     H43     0.3460    0.9346   -2.3359 H        1 ZINC000000009342    0.0600
44     H44     0.7292   -0.5588   -1.4464 H        1 ZINC000000009342    0.1200
@<TRIPOS>BOND
1     1     2     1
2     1     21    1
3     1     22    1
4     1     23    1
5     2     3     1
6     2     4     1
7     3     24    1
8     3     25    1
9     3     26    1
10    4     5     1
11    4     27    1
12    4     28    1
13    5     6     1
14    5     7     1
15    5     14    1
16    7     13    ar
17    7     8     ar
18    8     9     ar
19    8     29    1
20    9     10    ar
21    9     30    1
22    10    11    1
23    10    12    ar
24    11    31    1
25    12    13    ar
26    12    32    1
27    13    33    1
28    14    20    1
29    14    15    1
30    14    16    1
31    15    34    1
32    16    17    1
33    16    35    1
34    16    36    1
35    17    18    1
36    17    37    1
37    17    38    1
38    18    19    1
39    18    39    1
40    18    40    1
41    19    20    1
42    19    41    1
43    19    42    1
44    20    43    1
45    20    44    1
@<TRIPOS>SUBSTRUCTURE
1   ZINC000000009342 1     RESIDUE    1   A     ZIN   1
