@<TRIPOS>MOLECULE
ZINC000003875332
57    60    1     0     0
SMALL
USER_CHARGES
@<TRIPOS>ATOM
1      C1      0.4059    1.5759    0.4731 C.3      1 ZINC000003875332   -0.1400
2      C2      0.3219    0.0631    0.2603 C.3      1 ZINC000003875332   -0.1200
3      H3      0.8909   -0.2221   -0.6246 H        1 ZINC000003875332    0.0900
4      C4     -1.1609   -0.3716    0.1037 C.3      1 ZINC000003875332   -0.1100
5      C5     -1.5446   -0.8000    1.5244 C.3      1 ZINC000003875332   -0.0800
6      H6     -1.6978    0.0751    2.1559 H        1 ZINC000003875332    0.0900
7      C7     -2.7296   -1.7422    1.6327 C.3      1 ZINC000003875332   -0.1000
8      H8     -2.5372   -2.6437    1.0511 H        1 ZINC000003875332    0.1100
9      C9     -3.9916   -1.0514    1.1120 C.3      1 ZINC000003875332   -0.1200
10     C10    -5.1772   -2.0187    1.1861 C.3      1 ZINC000003875332   -0.1000
11     C11    -5.2914   -2.5167    2.6147 C.2      1 ZINC000003875332   -0.0300
12     C12    -6.4618   -2.4349    3.2321 C.2      1 ZINC000003875332   -0.2200
13     C13    -6.6063   -2.8884    4.6241 C.2      1 ZINC000003875332    0.4100
14     O14    -7.6872   -2.8509    5.1817 O.2      1 ZINC000003875332   -0.4600
15     C15    -5.4132   -3.3894    5.3272 C.2      1 ZINC000003875332   -0.2100
16     C16    -4.2564   -3.4688    4.6888 C.2      1 ZINC000003875332   -0.0700
17     C17    -4.0631   -3.0847    3.2620 C.3      1 ZINC000003875332   -0.0300
18     C18    -3.6662   -4.3433    2.4880 C.3      1 ZINC000003875332   -0.1400
19     C19    -2.8938   -2.1074    3.1167 C.3      1 ZINC000003875332    0.1600
20     F20    -3.1791   -0.9390    3.8313 F        1 ZINC000003875332   -0.1900
21     C21    -1.6337   -2.7363    3.7035 C.3      1 ZINC000003875332    0.0900
22     H22    -1.7730   -2.8778    4.7753 H        1 ZINC000003875332    0.0700
23     O23    -1.4185   -4.0086    3.0897 O.3      1 ZINC000003875332   -0.5400
24     C24    -0.3972   -1.8536    3.4710 C.3      1 ZINC000003875332   -0.1300
25     C25    -0.2770   -1.5763    1.9720 C.3      1 ZINC000003875332   -0.0400
26     C26    -0.2622   -2.8971    1.1999 C.3      1 ZINC000003875332   -0.1700
27     C27     0.8671   -0.6800    1.5053 C.3      1 ZINC000003875332    0.1100
28     O28     1.2390    0.2290    2.5434 O.3      1 ZINC000003875332   -0.5300
29     C29     2.0511   -1.5165    1.0934 C.2      1 ZINC000003875332    0.3300
30     O30     2.1691   -1.8720   -0.0546 O.2      1 ZINC000003875332   -0.4100
31     C31     3.0877   -1.9093    2.1142 C.3      1 ZINC000003875332    0.0300
32     O32     4.1025   -2.6943    1.4848 O.3      1 ZINC000003875332   -0.5600
33     H33     1.4465    1.8648    0.6206 H        1 ZINC000003875332    0.0500
34     H34     0.0071    2.0886   -0.4022 H        1 ZINC000003875332    0.0600
35     H35    -0.1760    1.8520    1.3524 H        1 ZINC000003875332    0.0700
36     H36    -1.7757    0.4660   -0.2259 H        1 ZINC000003875332    0.0800
37     H37    -1.2461   -1.2097   -0.5881 H        1 ZINC000003875332    0.0800
38     H38    -4.2018   -0.1726    1.7215 H        1 ZINC000003875332    0.0700
39     H39    -3.8370   -0.7457    0.0772 H        1 ZINC000003875332    0.0800
40     H40    -6.0933   -1.5004    0.9027 H        1 ZINC000003875332    0.0800
41     H41    -5.0076   -2.8609    0.5152 H        1 ZINC000003875332    0.0900
42     H42    -7.3161   -2.0316    2.7089 H        1 ZINC000003875332    0.1400
43     H43    -5.4819   -3.6912    6.3619 H        1 ZINC000003875332    0.1400
44     H44    -3.3997   -3.8341    5.2357 H        1 ZINC000003875332    0.1300
45     H45    -4.5609   -4.9138    2.2387 H        1 ZINC000003875332    0.0500
46     H46    -3.1498   -4.0585    1.5713 H        1 ZINC000003875332    0.0800
47     H47    -3.0051   -4.9545    3.1025 H        1 ZINC000003875332    0.1000
48     H48    -0.6334   -4.4726    3.4111 H        1 ZINC000003875332    0.3800
49     H49    -0.5271   -0.8936    3.9706 H        1 ZINC000003875332    0.0900
50     H50     0.4931   -2.3540    3.8519 H        1 ZINC000003875332    0.0800
51     H51    -1.2264   -3.3933    1.3104 H        1 ZINC000003875332    0.1100
52     H52    -0.0742   -2.6991    0.1447 H        1 ZINC000003875332    0.0600
53     H53     0.5245   -3.5400    1.5948 H        1 ZINC000003875332    0.0500
54     H54     1.9623    0.8245    2.3042 H        1 ZINC000003875332    0.3800
55     H55     3.5352   -1.0120    2.5415 H        1 ZINC000003875332    0.0800
56     H56     2.6160   -2.4921    2.9054 H        1 ZINC000003875332    0.0800
57     H57     4.8046   -2.9830    2.0838 H        1 ZINC000003875332    0.3900
@<TRIPOS>BOND
1     1     2     1
2     1     33    1
3     1     34    1
4     1     35    1
5     2     3     1
6     2     27    1
7     2     4     1
8     4     5     1
9     4     36    1
10    4     37    1
11    5     6     1
12    5     25    1
13    5     7     1
14    7     8     1
15    7     19    1
16    7     9     1
17    9     10    1
18    9     38    1
19    9     39    1
20    10    11    1
21    10    40    1
22    10    41    1
23    11    17    1
24    11    12    2
25    12    13    1
26    12    42    1
27    13    14    2
28    13    15    1
29    15    16    2
30    15    43    1
31    16    17    1
32    16    44    1
33    17    18    1
34    17    19    1
35    18    45    1
36    18    46    1
37    18    47    1
38    19    20    1
39    19    21    1
40    21    22    1
41    21    23    1
42    21    24    1
43    23    48    1
44    24    25    1
45    24    49    1
46    24    50    1
47    25    26    1
48    25    27    1
49    26    51    1
50    26    52    1
51    26    53    1
52    27    28    1
53    27    29    1
54    28    54    1
55    29    30    2
56    29    31    1
57    31    32    1
58    31    55    1
59    31    56    1
60    32    57    1
@<TRIPOS>SUBSTRUCTURE
1   ZINC000003875332 1     RESIDUE    1   A     ZIN   1
