@<TRIPOS>MOLECULE
ZINC000003843198
44    45    1     0     0
SMALL
USER_CHARGES
@<TRIPOS>ATOM
1      C1     -0.0184    1.5028    0.0103 C.3      1 ZINC000003843198   -0.1500
2      C2      0.0021   -0.0041    0.0020 C.2      1 ZINC000003843198    0.4600
3      O3      1.0565   -0.5939   -0.0112 O.2      1 ZINC000003843198   -0.5100
4      O4     -1.1511   -0.6910    0.0093 O.3      1 ZINC000003843198   -0.3500
5      C5     -1.0555   -2.1398    0.0006 C.3      1 ZINC000003843198    0.0700
6      C6     -2.4612   -2.7438    0.0108 C.3      1 ZINC000003843198    0.0700
7      H7     -3.0366   -2.3497    0.8485 H        1 ZINC000003843198    0.1100
8      O8     -3.1357   -2.4685   -1.2362 O.3      1 ZINC000003843198   -0.3400
9      C9     -4.1869   -3.4548   -1.3260 C.3      1 ZINC000003843198    0.2800
10     H10    -5.0280   -3.1715   -0.6932 H        1 ZINC000003843198    0.1500
11     N11    -4.6246   -3.6087   -2.7156 N.am     1 ZINC000003843198   -0.5200
12     C12    -3.7038   -3.8838   -3.6896 C.2      1 ZINC000003843198    0.1700
13     C13    -4.1073   -4.0260   -4.9703 C.2      1 ZINC000003843198   -0.2800
14     C14    -5.4819   -3.8867   -5.2788 C.2      1 ZINC000003843198    0.5500
15     O15    -5.8698   -4.0110   -6.4265 O.2      1 ZINC000003843198   -0.5100
16     N16    -6.3578   -3.6155   -4.2902 N.am     1 ZINC000003843198   -0.6500
17     C17    -5.9288   -3.4837   -3.0212 C.2      1 ZINC000003843198    0.7100
18     O18    -6.7302   -3.2395   -2.1400 O.2      1 ZINC000003843198   -0.5400
19     C19    -3.5453   -4.7633   -0.8137 C.3      1 ZINC000003843198    0.0500
20     H20    -3.1645   -5.3538   -1.6470 H        1 ZINC000003843198    0.1200
21     O21    -4.5055   -5.5331   -0.0432 O.3      1 ZINC000003843198   -0.3200
22     C22    -5.2368   -6.4390   -0.7112 C.2      1 ZINC000003843198    0.4600
23     C23    -6.2537   -7.2753    0.0220 C.3      1 ZINC000003843198   -0.1500
24     O24    -5.0799   -6.5838   -1.9005 O.2      1 ZINC000003843198   -0.5000
25     C25    -2.3839   -4.2846    0.0890 C.3      1 ZINC000003843198    0.0700
26     H26    -1.4283   -4.6379   -0.2986 H        1 ZINC000003843198    0.1300
27     O27    -2.5783   -4.7417    1.4534 O.3      1 ZINC000003843198   -0.3200
28     C28    -1.4748   -4.9697    2.1828 C.2      1 ZINC000003843198    0.4600
29     C29    -1.5981   -5.4458    3.6072 C.3      1 ZINC000003843198   -0.1500
30     O30    -0.3825   -4.7932    1.6972 O.2      1 ZINC000003843198   -0.5000
31     H31     1.0042    1.8801    0.0026 H        1 ZINC000003843198    0.1000
32     H32    -0.5455    1.8639   -0.8728 H        1 ZINC000003843198    0.1000
33     H33    -0.5286    1.8543    0.9071 H        1 ZINC000003843198    0.1000
34     H34    -0.5273   -2.4637   -0.8962 H        1 ZINC000003843198    0.0900
35     H35    -0.5104   -2.4732    0.8837 H        1 ZINC000003843198    0.1000
36     H36    -2.6591   -3.9862   -3.4353 H        1 ZINC000003843198    0.1800
37     H37    -3.3909   -4.2429   -5.7488 H        1 ZINC000003843198    0.1800
38     H38    -7.3012   -3.5186   -4.4937 H        1 ZINC000003843198    0.4300
39     H39    -7.2162   -6.7638    0.0173 H        1 ZINC000003843198    0.1100
40     H40    -6.3534   -8.2418   -0.4719 H        1 ZINC000003843198    0.1100
41     H41    -5.9269   -7.4251    1.0510 H        1 ZINC000003843198    0.1000
42     H42    -1.6147   -6.5355    3.6260 H        1 ZINC000003843198    0.1100
43     H43    -0.7476   -5.0854    4.1858 H        1 ZINC000003843198    0.1100
44     H44    -2.5214   -5.0610    4.0403 H        1 ZINC000003843198    0.1000
@<TRIPOS>BOND
1     1     2     1
2     1     31    1
3     1     32    1
4     1     33    1
5     2     3     2
6     2     4     1
7     4     5     1
8     5     6     1
9     5     34    1
10    5     35    1
11    6     7     1
12    6     25    1
13    6     8     1
14    8     9     1
15    9     10    1
16    9     11    1
17    9     19    1
18    11    17    am
19    11    12    1
20    12    13    2
21    12    36    1
22    13    14    1
23    13    37    1
24    14    15    2
25    14    16    am
26    16    17    am
27    16    38    1
28    17    18    2
29    19    20    1
30    19    21    1
31    19    25    1
32    21    22    1
33    22    23    1
34    22    24    2
35    23    39    1
36    23    40    1
37    23    41    1
38    25    26    1
39    25    27    1
40    27    28    1
41    28    29    1
42    28    30    2
43    29    42    1
44    29    43    1
45    29    44    1
@<TRIPOS>SUBSTRUCTURE
1   ZINC000003843198 1     RESIDUE    1   A     ZIN   1
