@<TRIPOS>MOLECULE
ZINC000003831151
76    80    1     0     0
SMALL
USER_CHARGES
@<TRIPOS>ATOM
1      C1     -1.7849   -1.2341    2.6319 C.3      1 ZINC000003831151   -0.1500
2      C2     -1.9832   -0.7304    1.2009 C.3      1 ZINC000003831151    0.1700
3      C3     -3.4794   -0.6510    0.8908 C.3      1 ZINC000003831151   -0.1800
4      O4     -1.3996    0.5672    1.0675 O.3      1 ZINC000003831151   -0.5300
5      C5     -1.3203   -1.6808    0.2374 C.ar     1 ZINC000003831151   -0.1200
6      C6     -2.0823   -2.5929   -0.4681 C.ar     1 ZINC000003831151   -0.1100
7      C7     -1.4741   -3.4648   -1.3520 C.ar     1 ZINC000003831151   -0.1300
8      C8     -0.1042   -3.4240   -1.5306 C.ar     1 ZINC000003831151   -0.1200
9      C9      0.6580   -2.5110   -0.8256 C.ar     1 ZINC000003831151   -0.1200
10     C10     0.0495   -1.6365    0.0549 C.ar     1 ZINC000003831151   -0.0500
11     C11     0.8802   -0.6413    0.8233 C.3      1 ZINC000003831151   -0.1400
12     C12     1.4847   -1.3228    2.0526 C.3      1 ZINC000003831151   -0.0800
13     C13     2.4206   -0.3466    2.7683 C.3      1 ZINC000003831151   -0.0400
14     H14     3.1670    0.0228    2.0651 H        1 ZINC000003831151    0.0900
15     S15     1.4586    1.0477    3.4171 S.3      1 ZINC000003831151   -0.1900
16     C16     2.7362    2.1507    4.0819 C.3      1 ZINC000003831151   -0.0400
17     C17     2.0757    3.3963    4.6762 C.3      1 ZINC000003831151   -0.0600
18     C18     0.9120    3.9750    3.8689 C.3      1 ZINC000003831151   -0.1500
19     C19     1.4415    4.6096    2.6087 C.2      1 ZINC000003831151    0.5000
20     O20     2.6411    4.6248    2.3913 O.co2    1 ZINC000003831151   -0.6900
21     O21     0.6702    5.1077    1.8065 O.co2    1 ZINC000003831151   -0.7100
22     C22     1.9960    3.4942    6.2010 C.3      1 ZINC000003831151   -0.1900
23     C23     2.9734    4.3815    5.4274 C.3      1 ZINC000003831151   -0.1500
24     C24     3.1095   -1.0544    3.9065 C.ar     1 ZINC000003831151   -0.0700
25     C25     2.3599   -1.6154    4.9252 C.ar     1 ZINC000003831151   -0.0800
26     C26     2.9838   -2.2674    5.9746 C.ar     1 ZINC000003831151   -0.1200
27     C27     4.3589   -2.3626    6.0117 C.ar     1 ZINC000003831151   -0.1100
28     C28     5.1229   -1.7987    4.9860 C.ar     1 ZINC000003831151   -0.0800
29     C29     6.5928   -1.8966    5.0181 C.2      1 ZINC000003831151   -0.0300
30     C30     7.2019   -2.5293    6.0352 C.2      1 ZINC000003831151   -0.1500
31     C31     8.6703   -2.6271    6.0673 C.ar     1 ZINC000003831151    0.2100
32     C32     9.2925   -3.2978    7.1363 C.ar     1 ZINC000003831151   -0.1600
33     C33    10.6506   -3.3947    7.1767 C.ar     1 ZINC000003831151   -0.0500
34     C34    11.3946   -2.8114    6.1312 C.ar     1 ZINC000003831151   -0.1100
35     C35    12.7965   -2.8762    6.1127 C.ar     1 ZINC000003831151   -0.0800
36     C36    13.4846   -2.3022    5.0872 C.ar     1 ZINC000003831151   -0.1200
37     C37    12.8147   -1.6490    4.0531 C.ar     1 ZINC000003831151   -0.0100
38     Cl38   13.7276   -0.9293    2.7638 Cl       1 ZINC000003831151   -0.0600
39     C39    11.4551   -1.5675    4.0388 C.ar     1 ZINC000003831151   -0.0900
40     C40    10.7102   -2.1485    5.0809 C.ar     1 ZINC000003831151    0.1500
41     N41     9.3765   -2.0873    5.0877 N.ar     1 ZINC000003831151   -0.4700
42     C42     4.4857   -1.1462    3.9273 C.ar     1 ZINC000003831151   -0.0900
43     H43    -2.6357   -1.8512    2.9210 H        1 ZINC000003831151    0.0600
44     H44    -0.8716   -1.8266    2.6852 H        1 ZINC000003831151    0.0700
45     H45    -1.7063   -0.3835    3.3089 H        1 ZINC000003831151    0.0800
46     H46    -3.9359    0.1286    1.5006 H        1 ZINC000003831151    0.0700
47     H47    -3.6198   -0.4160   -0.1642 H        1 ZINC000003831151    0.0600
48     H48    -3.9483   -1.6091    1.1153 H        1 ZINC000003831151    0.0600
49     H49    -1.4880    0.9492    0.1836 H        1 ZINC000003831151    0.3800
50     H50    -3.1528   -2.6248   -0.3286 H        1 ZINC000003831151    0.1200
51     H51    -2.0695   -4.1780   -1.9027 H        1 ZINC000003831151    0.1200
52     H52     0.3710   -4.1056   -2.2205 H        1 ZINC000003831151    0.1200
53     H53     1.7285   -2.4794   -0.9648 H        1 ZINC000003831151    0.1200
54     H54     1.6806   -0.2665    0.1853 H        1 ZINC000003831151    0.0700
55     H55     0.2501    0.1893    1.1414 H        1 ZINC000003831151    0.1500
56     H56     0.6861   -1.6238    2.7307 H        1 ZINC000003831151    0.0800
57     H57     2.0472   -2.2027    1.7404 H        1 ZINC000003831151    0.0600
58     H58     3.2965    1.6308    4.8589 H        1 ZINC000003831151    0.0600
59     H59     3.4140    2.4459    3.2809 H        1 ZINC000003831151    0.0900
60     H60     0.2172    3.1763    3.6093 H        1 ZINC000003831151    0.0700
61     H61     0.3949    4.7271    4.4648 H        1 ZINC000003831151    0.0500
62     H62     1.1143    3.9710    6.6293 H        1 ZINC000003831151    0.0900
63     H63     2.4141    2.6713    6.7807 H        1 ZINC000003831151    0.0800
64     H64     4.0345    4.1423    5.4983 H        1 ZINC000003831151    0.0800
65     H65     2.7347    5.4420    5.3468 H        1 ZINC000003831151    0.0900
66     H66     1.2825   -1.5440    4.9014 H        1 ZINC000003831151    0.1300
67     H67     2.3921   -2.7023    6.7666 H        1 ZINC000003831151    0.1200
68     H68     4.8444   -2.8713    6.8314 H        1 ZINC000003831151    0.1200
69     H69     7.1805   -1.4600    4.2242 H        1 ZINC000003831151    0.1300
70     H70     6.6142   -2.9659    6.8291 H        1 ZINC000003831151    0.1300
71     H71     8.6948   -3.7343    7.9230 H        1 ZINC000003831151    0.1400
72     H72    11.1451   -3.9055    7.9897 H        1 ZINC000003831151    0.1400
73     H73    13.3270   -3.3785    6.9080 H        1 ZINC000003831151    0.1400
74     H74    14.5633   -2.3532    5.0748 H        1 ZINC000003831151    0.1400
75     H75    10.9510   -1.0582    3.2308 H        1 ZINC000003831151    0.1500
76     H76     5.0695   -0.7081    3.1313 H        1 ZINC000003831151    0.1200
@<TRIPOS>BOND
1     1     2     1
2     1     43    1
3     1     44    1
4     1     45    1
5     2     3     1
6     2     4     1
7     2     5     1
8     3     46    1
9     3     47    1
10    3     48    1
11    4     49    1
12    5     10    ar
13    5     6     ar
14    6     7     ar
15    6     50    1
16    7     8     ar
17    7     51    1
18    8     9     ar
19    8     52    1
20    9     10    ar
21    9     53    1
22    10    11    1
23    11    12    1
24    11    54    1
25    11    55    1
26    12    13    1
27    12    56    1
28    12    57    1
29    13    14    1
30    13    15    1
31    13    24    1
32    15    16    1
33    16    17    1
34    16    58    1
35    16    59    1
36    17    23    1
37    17    18    1
38    17    22    1
39    18    19    1
40    18    60    1
41    18    61    1
42    19    20    ar
43    19    21    ar
44    22    23    1
45    22    62    1
46    22    63    1
47    23    64    1
48    23    65    1
49    24    42    ar
50    24    25    ar
51    25    26    ar
52    25    66    1
53    26    27    ar
54    26    67    1
55    27    28    ar
56    27    68    1
57    28    29    1
58    28    42    ar
59    29    30    2
60    29    69    1
61    30    31    1
62    30    70    1
63    31    41    ar
64    31    32    ar
65    32    33    ar
66    32    71    1
67    33    34    ar
68    33    72    1
69    34    40    ar
70    34    35    ar
71    35    36    ar
72    35    73    1
73    36    37    ar
74    36    74    1
75    37    38    1
76    37    39    ar
77    39    40    ar
78    39    75    1
79    40    41    ar
80    42    76    1
@<TRIPOS>SUBSTRUCTURE
1   ZINC000003831151 1     RESIDUE    1   A     ZIN   1
