@<TRIPOS>MOLECULE
ZINC000000895302
16    16    1     0     0
SMALL
USER_CHARGES
@<TRIPOS>ATOM
1      O1     -0.0173    1.4248    0.0099 O.3      1 ZINC000000895302   -0.5700
2      C2      0.0021   -0.0041    0.0020 C.3      1 ZINC000000895302    0.1200
3      C3     -1.4117   -0.5257    0.0127 C.ar     1 ZINC000000895302   -0.1000
4      C4     -2.0507   -0.7660    1.2147 C.ar     1 ZINC000000895302   -0.1000
5      C5     -3.3476   -1.2445    1.2246 C.ar     1 ZINC000000895302   -0.1200
6      C6     -4.0056   -1.4822    0.0324 C.ar     1 ZINC000000895302   -0.1100
7      C7     -3.3670   -1.2410   -1.1697 C.ar     1 ZINC000000895302   -0.1200
8      C8     -2.0716   -0.7585   -1.1795 C.ar     1 ZINC000000895302   -0.1000
9      H9      0.8606    1.8301    0.0037 H        1 ZINC000000895302    0.3800
10     H10     0.5123   -0.3556   -0.8948 H        1 ZINC000000895302    0.0600
11     H11     0.5293   -0.3651    0.8851 H        1 ZINC000000895302    0.0600
12     H12    -1.5366   -0.5803    2.1462 H        1 ZINC000000895302    0.1200
13     H13    -3.8465   -1.4329    2.1637 H        1 ZINC000000895302    0.1200
14     H14    -5.0186   -1.8567    0.0400 H        1 ZINC000000895302    0.1200
15     H15    -3.8810   -1.4271   -2.1011 H        1 ZINC000000895302    0.1200
16     H16    -1.5726   -0.5701   -2.1186 H        1 ZINC000000895302    0.1200
@<TRIPOS>BOND
1     1     2     1
2     1     9     1
3     2     3     1
4     2     10    1
5     2     11    1
6     3     8     ar
7     3     4     ar
8     4     5     ar
9     4     12    1
10    5     6     ar
11    5     13    1
12    6     7     ar
13    6     14    1
14    7     8     ar
15    7     15    1
16    8     16    1
@<TRIPOS>SUBSTRUCTURE
1   ZINC000000895302 1     RESIDUE    1   A     ZIN   1
