@<TRIPOS>MOLECULE
ZINC000022002214
45    47    1     0     0
SMALL
USER_CHARGES
@<TRIPOS>ATOM
1      C1     -0.0187    1.5258    0.0104 C.3      1 ZINC000022002214   -0.1400
2      C2      0.0021   -0.0041    0.0020 C.3      1 ZINC000022002214   -0.0500
3      C3     -1.4117   -0.5257    0.0127 C.2      1 ZINC000022002214   -0.0800
4      C4     -2.1658   -0.8072    1.0953 C.2      1 ZINC000022002214    0.0100
5      C5     -1.7277   -0.6498    2.5286 C.3      1 ZINC000022002214   -0.0900
6      N6     -3.3922   -1.2580    0.6864 N.pl3    1 ZINC000022002214   -0.5200
7      C7     -3.4610   -1.2774   -0.6485 C.2      1 ZINC000022002214    0.1000
8      C8     -2.2434   -0.8222   -1.1401 C.2      1 ZINC000022002214   -0.2800
9      C9     -1.9748   -0.7219   -2.5784 C.2      1 ZINC000022002214    0.4300
10     O10    -1.0031   -0.1454   -3.0211 O.2      1 ZINC000022002214   -0.4800
11     C11    -3.0044   -1.3947   -3.4751 C.3      1 ZINC000022002214   -0.1600
12     H12    -2.8469   -2.4732   -3.4699 H        1 ZINC000022002214    0.1300
13     C13    -2.8713   -0.8613   -4.9029 C.3      1 ZINC000022002214    0.0000
14     N14    -1.5663   -1.2528   -5.4522 N.4      1 ZINC000022002214   -0.3900
15     H15    -0.8331   -0.9373   -4.8349 H        1 ZINC000022002214    0.4300
16     C16    -1.3887   -0.6415   -6.7765 C.3      1 ZINC000022002214   -0.0400
17     C17    -0.0283   -1.0507   -7.3465 C.3      1 ZINC000022002214    0.0400
18     O18     0.0454   -2.4776   -7.4124 O.3      1 ZINC000022002214   -0.3600
19     C19    -0.1455   -3.1210   -6.1493 C.3      1 ZINC000022002214    0.0400
20     C20    -1.5061   -2.7157   -5.5769 C.3      1 ZINC000022002214   -0.0500
21     C21    -4.4007   -1.0745   -2.9319 C.3      1 ZINC000022002214   -0.1000
22     C22    -4.6004   -1.6887   -1.5453 C.3      1 ZINC000022002214   -0.0600
23     H23     1.0039    1.9031    0.0027 H        1 ZINC000022002214    0.0600
24     H24    -0.5459    1.8868   -0.8726 H        1 ZINC000022002214    0.0500
25     H25    -0.5289    1.8773    0.9072 H        1 ZINC000022002214    0.0500
26     H26     0.5123   -0.3556   -0.8948 H        1 ZINC000022002214    0.0700
27     H27     0.5293   -0.3651    0.8851 H        1 ZINC000022002214    0.0700
28     H28    -1.9778    0.3523    2.8770 H        1 ZINC000022002214    0.0800
29     H29    -2.2380   -1.3877    3.1476 H        1 ZINC000022002214    0.0700
30     H30    -0.6503   -0.8002    2.5977 H        1 ZINC000022002214    0.0900
31     H31    -4.1099   -1.5258    1.2814 H        1 ZINC000022002214    0.4200
32     H32    -3.6658   -1.2780   -5.5220 H        1 ZINC000022002214    0.1400
33     H33    -2.9502    0.2258   -4.8935 H        1 ZINC000022002214    0.1400
34     H34    -2.1801   -0.9830   -7.4437 H        1 ZINC000022002214    0.1400
35     H35    -1.4331    0.4438   -6.6849 H        1 ZINC000022002214    0.1400
36     H36     0.0876   -0.6336   -8.3469 H        1 ZINC000022002214    0.1400
37     H37     0.7650   -0.6746   -6.7005 H        1 ZINC000022002214    0.0800
38     H38    -0.1145   -4.2023   -6.2833 H        1 ZINC000022002214    0.1400
39     H39     0.6438   -2.8158   -5.4623 H        1 ZINC000022002214    0.0800
40     H40    -1.6375   -3.1702   -4.5950 H        1 ZINC000022002214    0.1400
41     H41    -2.2975   -3.0563   -6.2445 H        1 ZINC000022002214    0.1400
42     H42    -4.5194    0.0068   -2.8621 H        1 ZINC000022002214    0.0900
43     H43    -5.1514   -1.4739   -3.6138 H        1 ZINC000022002214    0.1000
44     H44    -4.6172   -2.7755   -1.6275 H        1 ZINC000022002214    0.1000
45     H45    -5.5438   -1.3401   -1.1251 H        1 ZINC000022002214    0.1000
@<TRIPOS>BOND
1     1     2     1
2     1     23    1
3     1     24    1
4     1     25    1
5     2     3     1
6     2     26    1
7     2     27    1
8     3     8     1
9     3     4     2
10    4     5     1
11    4     6     1
12    5     28    1
13    5     29    1
14    5     30    1
15    6     7     1
16    6     31    1
17    7     22    1
18    7     8     2
19    8     9     1
20    9     10    2
21    9     11    1
22    11    12    1
23    11    13    1
24    11    21    1
25    13    14    1
26    13    32    1
27    13    33    1
28    14    15    1
29    14    20    1
30    14    16    1
31    16    17    1
32    16    34    1
33    16    35    1
34    17    18    1
35    17    36    1
36    17    37    1
37    18    19    1
38    19    20    1
39    19    38    1
40    19    39    1
41    20    40    1
42    20    41    1
43    21    22    1
44    21    42    1
45    21    43    1
46    22    44    1
47    22    45    1
@<TRIPOS>SUBSTRUCTURE
1   ZINC000022002214 1     RESIDUE    1   A     ZIN   1
