@<TRIPOS>MOLECULE
ZINC000084758479
58    62    1     0     0
SMALL
USER_CHARGES
@<TRIPOS>ATOM
1      O1      0.0021   -0.0041    0.0020 O.2      1 ZINC000084758479   -0.5400
2      C2     -0.0145    1.2148    0.0087 C.2      1 ZINC000084758479    0.5400
3      C3     -1.2546    1.8850    0.0300 C.2      1 ZINC000084758479   -0.2300
4      C4     -1.2991    3.2414    0.0379 C.2      1 ZINC000084758479    0.0000
5      C5     -0.0382    3.9823    0.0238 C.ar     1 ZINC000084758479   -0.1700
6      C6     -0.0221    5.3819    0.0316 C.ar     1 ZINC000084758479   -0.0100
7      C7      1.1697    6.0463    0.0185 C.ar     1 ZINC000084758479   -0.2300
8      C8      2.3725    5.3421   -0.0025 C.ar     1 ZINC000084758479    0.1900
9      O9      3.5489    6.0197   -0.0152 O.3      1 ZINC000084758479   -0.3100
10     C10     3.4757    7.4468   -0.0061 C.3      1 ZINC000084758479    0.0600
11     C11     4.8901    8.0301   -0.0228 C.3      1 ZINC000084758479   -0.1200
12     C12     4.8118    9.5580   -0.0130 C.3      1 ZINC000084758479   -0.1200
13     C13     6.2261   10.1413   -0.0297 C.3      1 ZINC000084758479    0.0600
14     N14     6.1509   11.6084   -0.0203 N.3      1 ZINC000084758479   -0.5400
15     C15     5.1617   12.0912   -0.9939 C.3      1 ZINC000084758479    0.0500
16     C16     5.0565   13.6150   -0.8972 C.3      1 ZINC000084758479    0.0600
17     N17     6.3754   14.2116   -1.1507 N.3      1 ZINC000084758479   -0.5000
18     C18     6.3039   15.6055   -1.1418 C.ar     1 ZINC000084758479    0.1300
19     C19     6.6655   16.3386   -2.2992 C.ar     1 ZINC000084758479   -0.0500
20     C20     7.1315   15.8537   -3.5882 C.2      1 ZINC000084758479   -0.1000
21     C21     7.3894   16.7944   -4.4744 C.2      1 ZINC000084758479   -0.2000
22     S22     7.0859   18.3913   -3.8181 S.3      1 ZINC000084758479    0.0800
23     C23     6.5856   17.7320   -2.2656 C.ar     1 ZINC000084758479   -0.1300
24     C24     6.1540   18.3777   -1.1014 C.ar     1 ZINC000084758479   -0.0900
25     C25     5.8077   17.6497    0.0123 C.ar     1 ZINC000084758479   -0.0900
26     C26     5.8764   16.2643   -0.0090 C.ar     1 ZINC000084758479   -0.1500
27     C27     7.3645   13.7288   -0.1771 C.3      1 ZINC000084758479    0.0600
28     C28     7.4698   12.2049   -0.2738 C.3      1 ZINC000084758479    0.0600
29     C29     2.3778    3.9577   -0.0099 C.ar     1 ZINC000084758479   -0.2100
30     C30     1.1746    3.2649    0.0027 C.ar     1 ZINC000084758479    0.2300
31     N31     1.1505    1.8860    0.0012 N.am     1 ZINC000084758479   -0.6300
32     H32    -2.1729    1.3167    0.0397 H        1 ZINC000084758479    0.1500
33     H33    -2.2450    3.7624    0.0538 H        1 ZINC000084758479    0.1500
34     H34    -0.9500    5.9343    0.0475 H        1 ZINC000084758479    0.1400
35     H35     1.1811    7.1262    0.0241 H        1 ZINC000084758479    0.1400
36     H36     2.9315    7.7883   -0.8866 H        1 ZINC000084758479    0.0700
37     H37     2.9566    7.7782    0.8932 H        1 ZINC000084758479    0.0700
38     H38     5.4344    7.6885    0.8577 H        1 ZINC000084758479    0.0800
39     H39     5.4092    7.6986   -0.9221 H        1 ZINC000084758479    0.0800
40     H40     4.2675    9.8996   -0.8935 H        1 ZINC000084758479    0.0700
41     H41     4.2926    9.8895    0.8863 H        1 ZINC000084758479    0.0800
42     H42     6.7704    9.7998    0.8508 H        1 ZINC000084758479    0.0800
43     H43     6.7453    9.8099   -0.9290 H        1 ZINC000084758479    0.0400
44     H44     5.4749   11.8114   -1.9998 H        1 ZINC000084758479    0.0400
45     H45     4.1909   11.6452   -0.7777 H        1 ZINC000084758479    0.0900
46     H46     4.3445   13.9782   -1.6385 H        1 ZINC000084758479    0.0800
47     H47     4.7171   13.8936    0.1004 H        1 ZINC000084758479    0.0500
48     H48     7.2570   14.8028   -3.8029 H        1 ZINC000084758479    0.1500
49     H49     7.7433   16.6055   -5.4772 H        1 ZINC000084758479    0.1700
50     H50     6.0929   19.4557   -1.0775 H        1 ZINC000084758479    0.1300
51     H51     5.4763   18.1581    0.9056 H        1 ZINC000084758479    0.1300
52     H52     5.6027   15.6994    0.8698 H        1 ZINC000084758479    0.1300
53     H53     8.3353   14.1748   -0.3933 H        1 ZINC000084758479    0.0800
54     H54     7.0514   14.0086    0.8287 H        1 ZINC000084758479    0.0500
55     H55     8.1817   11.8418    0.4674 H        1 ZINC000084758479    0.0800
56     H56     7.8092   11.9264   -1.2715 H        1 ZINC000084758479    0.0500
57     H57     3.3137    3.4190   -0.0262 H        1 ZINC000084758479    0.1400
58     H58     1.9860    1.3933   -0.0091 H        1 ZINC000084758479    0.4200
@<TRIPOS>BOND
1     1     2     2
2     2     31    am
3     2     3     1
4     3     4     2
5     3     32    1
6     4     5     1
7     4     33    1
8     5     30    ar
9     5     6     ar
10    6     7     ar
11    6     34    1
12    7     8     ar
13    7     35    1
14    8     9     1
15    8     29    ar
16    9     10    1
17    10    11    1
18    10    36    1
19    10    37    1
20    11    12    1
21    11    38    1
22    11    39    1
23    12    13    1
24    12    40    1
25    12    41    1
26    13    14    1
27    13    42    1
28    13    43    1
29    14    28    1
30    14    15    1
31    15    16    1
32    15    44    1
33    15    45    1
34    16    17    1
35    16    46    1
36    16    47    1
37    17    18    1
38    17    27    1
39    18    26    ar
40    18    19    ar
41    19    23    ar
42    19    20    1
43    20    21    2
44    20    48    1
45    21    22    1
46    21    49    1
47    22    23    1
48    23    24    ar
49    24    25    ar
50    24    50    1
51    25    26    ar
52    25    51    1
53    26    52    1
54    27    28    1
55    27    53    1
56    27    54    1
57    28    55    1
58    28    56    1
59    29    30    ar
60    29    57    1
61    30    31    1
62    31    58    1
@<TRIPOS>SUBSTRUCTURE
1   ZINC000084758479 1     RESIDUE    1   A     ZIN   1
