@<TRIPOS>MOLECULE
ZINC000018279854
29    30    1     0     0
SMALL
USER_CHARGES
@<TRIPOS>ATOM
1      N1     -0.0166    1.3714    0.0096 N.pl3    1 ZINC000018279854   -0.8100
2      C2      0.0021   -0.0041    0.0020 C.2      1 ZINC000018279854    0.5000
3      N3     -1.1354   -0.6867    0.0037 N.2      1 ZINC000018279854   -0.6100
4      C4     -1.1293   -2.0185   -0.0041 C.2      1 ZINC000018279854    0.6600
5      O5     -2.1886   -2.6233   -0.0028 O.2      1 ZINC000018279854   -0.5100
6      N6      0.0264   -2.7078   -0.0137 N.am     1 ZINC000018279854   -0.5400
7      C7      0.0011   -4.1726   -0.0226 C.3      1 ZINC000018279854    0.2700
8      H8      1.0094   -4.5720   -0.1311 H        1 ZINC000018279854    0.1400
9      O9     -0.8552   -4.6599   -1.0779 O.3      1 ZINC000018279854   -0.3200
10     C10    -1.2334   -6.0013   -0.7257 C.3      1 ZINC000018279854    0.0900
11     H11    -0.5405   -6.7121   -1.1759 H        1 ZINC000018279854    0.1100
12     C12    -2.6568   -6.2846   -1.2102 C.3      1 ZINC000018279854    0.0800
13     O13    -2.6827   -6.2836   -2.6390 O.3      1 ZINC000018279854   -0.5600
14     C14    -1.1685   -6.1072    0.8102 C.3      1 ZINC000018279854    0.0500
15     H15    -2.1575   -6.3107    1.2208 H        1 ZINC000018279854    0.1100
16     O16    -0.2462   -7.1257    1.2028 O.3      1 ZINC000018279854   -0.5300
17     C17    -0.6648   -4.7148    1.2678 C.3      1 ZINC000018279854    0.2200
18     F18     0.2678   -4.8368    2.3035 F        1 ZINC000018279854   -0.1800
19     F19    -1.7338   -3.8994    1.6544 F        1 ZINC000018279854   -0.1500
20     C20     1.2200   -2.0505   -0.0158 C.2      1 ZINC000018279854    0.1900
21     C21     1.2303   -0.6965   -0.0134 C.2      1 ZINC000018279854   -0.3000
22     H22     0.8168    1.8678    0.0043 H        1 ZINC000018279854    0.4200
23     H23    -0.8631    1.8449    0.0162 H        1 ZINC000018279854    0.4100
24     H24    -2.9789   -7.2586   -0.8417 H        1 ZINC000018279854    0.0700
25     H25    -3.3289   -5.5134   -0.8340 H        1 ZINC000018279854    0.0700
26     H26    -3.5559   -6.4571   -3.0166 H        1 ZINC000018279854    0.3900
27     H27    -0.1656   -7.2356    2.1601 H        1 ZINC000018279854    0.4000
28     H28     2.1477   -2.6035   -0.0235 H        1 ZINC000018279854    0.1800
29     H29     2.1649   -0.1552   -0.0154 H        1 ZINC000018279854    0.1600
@<TRIPOS>BOND
1     1     2     1
2     1     22    1
3     1     23    1
4     2     21    1
5     2     3     2
6     3     4     1
7     4     5     2
8     4     6     am
9     6     7     1
10    6     20    1
11    7     8     1
12    7     17    1
13    7     9     1
14    9     10    1
15    10    11    1
16    10    12    1
17    10    14    1
18    12    13    1
19    12    24    1
20    12    25    1
21    13    26    1
22    14    15    1
23    14    16    1
24    14    17    1
25    16    27    1
26    17    18    1
27    17    19    1
28    20    21    2
29    20    28    1
30    21    29    1
@<TRIPOS>SUBSTRUCTURE
1   ZINC000018279854 1     RESIDUE    1   A     ZIN   1
