@<TRIPOS>MOLECULE
ZINC000003831040
12    11    1     0     0
SMALL
USER_CHARGES
@<TRIPOS>ATOM
1      O1      0.0021   -0.0041    0.0020 O.co2    1 ZINC000003831040   -1.0600
2      S2     -0.0177    1.4504    0.0100 S.o2     1 ZINC000003831040    2.6400
3      O3      1.3412    1.9695   -0.0002 O.co2    1 ZINC000003831040   -1.0600
4      O4     -0.7519    1.9474   -1.1432 O.co2    1 ZINC000003831040   -1.0600
5      C5     -0.8484    2.0158    1.5203 C.3      1 ZINC000003831040   -0.6600
6      C6     -2.2804    1.4779    1.5465 C.3      1 ZINC000003831040   -0.0300
7      S7     -3.1111    2.0432    3.0568 S.3      1 ZINC000003831040   -0.2700
8      H8     -0.3064    1.6490    2.3920 H        1 ZINC000003831040    0.1100
9      H9     -0.8692    3.1054    1.5374 H        1 ZINC000003831040    0.1100
10     H10    -2.8223    1.8446    0.6748 H        1 ZINC000003831040    0.0900
11     H11    -2.2596    0.3882    1.5295 H        1 ZINC000003831040    0.0900
12     H12    -4.3386    1.5044    2.9468 H        1 ZINC000003831040    0.0800
@<TRIPOS>BOND
1     1     2     ar
2     2     3     ar
3     2     4     ar
4     2     5     1
5     5     6     1
6     5     8     1
7     5     9     1
8     6     7     1
9     6     10    1
10    6     11    1
11    7     12    1
@<TRIPOS>SUBSTRUCTURE
1   ZINC000003831040 1     RESIDUE    1   A     ZIN   1
