@<TRIPOS>MOLECULE
ZINC000000057532
41    42    1     0     0
SMALL
USER_CHARGES
@<TRIPOS>ATOM
1      C1     -0.1707    0.9852   -0.6788 C.3      1 ZINC000000057532   -0.1800
2      C2     -0.3307   -0.4296   -0.1186 C.3      1 ZINC000000057532    0.0900
3      N3     -1.7370   -0.6658    0.2171 N.am     1 ZINC000000057532   -0.6100
4      C4     -2.6967   -0.9961   -0.8393 C.3      1 ZINC000000057532    0.1500
5      C5     -2.7503   -2.4913   -1.0198 C.ar     1 ZINC000000057532   -0.0700
6      C6     -1.9019   -3.1294   -1.9116 C.ar     1 ZINC000000057532   -0.1600
7      C7     -1.9798   -4.5022   -2.0505 C.ar     1 ZINC000000057532    0.1000
8      N8     -2.8478   -5.2031   -1.3475 N.ar     1 ZINC000000057532   -0.4800
9      C9     -3.6699   -4.6300   -0.4903 C.ar     1 ZINC000000057532    0.1000
10     C10    -3.6453   -3.2622   -0.2937 C.ar     1 ZINC000000057532   -0.1500
11     C11    -2.1478   -0.5793    1.4978 C.2      1 ZINC000000057532    0.5200
12     O12    -3.3028   -0.8166    1.7815 O.2      1 ZINC000000057532   -0.5100
13     C13    -1.1719   -0.1876    2.5773 C.3      1 ZINC000000057532   -0.0700
14     H14    -0.2767   -0.8045    2.4990 H        1 ZINC000000057532    0.1100
15     C15    -0.7925    1.2853    2.4119 C.3      1 ZINC000000057532    0.0800
16     O16     0.1081    1.6652    3.4543 O.3      1 ZINC000000057532   -0.5600
17     C17    -1.8076   -0.3939    3.9280 C.ar     1 ZINC000000057532   -0.0600
18     C18    -2.9666    0.2837    4.2572 C.ar     1 ZINC000000057532   -0.0800
19     C19    -3.5497    0.0945    5.4962 C.ar     1 ZINC000000057532   -0.1200
20     C20    -2.9740   -0.7727    6.4058 C.ar     1 ZINC000000057532   -0.1200
21     C21    -1.8155   -1.4510    6.0763 C.ar     1 ZINC000000057532   -0.1200
22     C22    -1.2348   -1.2651    4.8357 C.ar     1 ZINC000000057532   -0.1100
23     H23     0.8606    1.3131   -0.5486 H        1 ZINC000000057532    0.0700
24     H24    -0.4213    0.9864   -1.7396 H        1 ZINC000000057532    0.0600
25     H25    -0.8376    1.6640   -0.1472 H        1 ZINC000000057532    0.0700
26     H26    -0.0088   -1.1548   -0.8660 H        1 ZINC000000057532    0.0800
27     H27     0.2798   -0.5365    0.7780 H        1 ZINC000000057532    0.0900
28     H28    -3.6843   -0.6281   -0.5610 H        1 ZINC000000057532    0.1000
29     H29    -2.3845   -0.5284   -1.7731 H        1 ZINC000000057532    0.0900
30     H30    -1.1894   -2.5608   -2.4907 H        1 ZINC000000057532    0.1300
31     H31    -1.3224   -5.0068   -2.7431 H        1 ZINC000000057532    0.1600
32     H32    -4.3676   -5.2369    0.0675 H        1 ZINC000000057532    0.1600
33     H33    -4.3208   -2.7987    0.4100 H        1 ZINC000000057532    0.1400
34     H34    -0.3107    1.4300    1.4449 H        1 ZINC000000057532    0.0700
35     H35    -1.6908    1.9002    2.4658 H        1 ZINC000000057532    0.0500
36     H36     0.3916    2.5887    3.4120 H        1 ZINC000000057532    0.3800
37     H37    -3.4164    0.9613    3.5466 H        1 ZINC000000057532    0.1200
38     H38    -4.4548    0.6245    5.7537 H        1 ZINC000000057532    0.1200
39     H39    -3.4292   -0.9200    7.3741 H        1 ZINC000000057532    0.1200
40     H40    -1.3655   -2.1283    6.7871 H        1 ZINC000000057532    0.1200
41     H41    -0.3297   -1.7950    4.5782 H        1 ZINC000000057532    0.1200
@<TRIPOS>BOND
1     1     2     1
2     1     23    1
3     1     24    1
4     1     25    1
5     2     3     1
6     2     26    1
7     2     27    1
8     3     4     1
9     3     11    am
10    4     5     1
11    4     28    1
12    4     29    1
13    5     10    ar
14    5     6     ar
15    6     7     ar
16    6     30    1
17    7     8     ar
18    7     31    1
19    8     9     ar
20    9     10    ar
21    9     32    1
22    10    33    1
23    11    12    2
24    11    13    1
25    13    14    1
26    13    15    1
27    13    17    1
28    15    16    1
29    15    34    1
30    15    35    1
31    16    36    1
32    17    22    ar
33    17    18    ar
34    18    19    ar
35    18    37    1
36    19    20    ar
37    19    38    1
38    20    21    ar
39    20    39    1
40    21    22    ar
41    21    40    1
42    22    41    1
@<TRIPOS>SUBSTRUCTURE
1   ZINC000000057532 1     RESIDUE    1   A     ZIN   1
