@<TRIPOS>MOLECULE
ZINC000002169830
32    34    1     0     0
SMALL
USER_CHARGES
@<TRIPOS>ATOM
1      N1     -0.0167    1.3797    0.0096 N.pl3    1 ZINC000002169830   -0.8200
2      C2      0.0021   -0.0041    0.0020 C.ar     1 ZINC000002169830    0.5100
3      C3     -1.1953   -0.7393    0.0036 C.ar     1 ZINC000002169830   -0.1100
4      N4     -2.5111   -0.4171    0.0123 N.2      1 ZINC000002169830   -0.4600
5      C5     -3.2237   -1.5060    0.0097 C.2      1 ZINC000002169830    0.2600
6      N6     -2.4068   -2.5973   -0.0008 N.pl3    1 ZINC000002169830   -0.4700
7      C7     -2.8327   -3.9990   -0.0071 C.3      1 ZINC000002169830    0.3200
8      H8     -2.1541   -4.6024   -0.6100 H        1 ZINC000002169830    0.1200
9      O9     -4.1868   -4.1167   -0.4941 O.3      1 ZINC000002169830   -0.3500
10     C10    -4.6994   -5.3693   -0.0101 C.3      1 ZINC000002169830    0.0500
11     H11    -4.5330   -6.1497   -0.7527 H        1 ZINC000002169830    0.1000
12     C12    -6.1957   -5.2408    0.2827 C.3      1 ZINC000002169830    0.0800
13     O13    -6.9039   -5.0286   -0.9402 O.3      1 ZINC000002169830   -0.5600
14     C14    -3.9359   -5.7070    1.2851 C.3      1 ZINC000002169830    0.0400
15     H15    -4.6181   -5.7314    2.1348 H        1 ZINC000002169830    0.0900
16     O16    -3.2574   -6.9578    1.1541 O.3      1 ZINC000002169830   -0.5400
17     C17    -2.9154   -4.5508    1.4389 C.3      1 ZINC000002169830    0.0800
18     H18    -3.2907   -3.7890    2.1223 H        1 ZINC000002169830    0.0900
19     O19    -1.6475   -5.0443    1.8760 O.3      1 ZINC000002169830   -0.5200
20     C20    -1.1125   -2.1421   -0.0049 C.ar     1 ZINC000002169830    0.3200
21     N21     0.0849   -2.7183   -0.0145 N.ar     1 ZINC000002169830   -0.5500
22     C22     1.1806   -1.9886   -0.0159 C.ar     1 ZINC000002169830    0.3600
23     N23     1.1531   -0.6685   -0.0125 N.ar     1 ZINC000002169830   -0.5900
24     H24     0.8167    1.8761    0.0043 H        1 ZINC000002169830    0.4100
25     H25    -0.8632    1.8532    0.0162 H        1 ZINC000002169830    0.4200
26     H26    -4.3032   -1.5401    0.0154 H        1 ZINC000002169830    0.2200
27     H27    -6.5532   -6.1555    0.7556 H        1 ZINC000002169830    0.0700
28     H28    -6.3638   -4.3965    0.9512 H        1 ZINC000002169830    0.0600
29     H29    -7.8603   -4.9378   -0.8301 H        1 ZINC000002169830    0.3900
30     H30    -3.8451   -7.7097    0.9978 H        1 ZINC000002169830    0.3900
31     H31    -1.6711   -5.4789    2.7395 H        1 ZINC000002169830    0.3900
32     H32     2.1380   -2.4885   -0.0238 H        1 ZINC000002169830    0.2100
@<TRIPOS>BOND
1     1     2     1
2     1     24    1
3     1     25    1
4     2     23    ar
5     2     3     ar
6     3     20    ar
7     3     4     1
8     4     5     2
9     5     6     1
10    5     26    1
11    6     7     1
12    6     20    1
13    7     8     1
14    7     17    1
15    7     9     1
16    9     10    1
17    10    11    1
18    10    12    1
19    10    14    1
20    12    13    1
21    12    27    1
22    12    28    1
23    13    29    1
24    14    15    1
25    14    16    1
26    14    17    1
27    16    30    1
28    17    18    1
29    17    19    1
30    19    31    1
31    20    21    ar
32    21    22    ar
33    22    23    ar
34    22    32    1
@<TRIPOS>SUBSTRUCTURE
1   ZINC000002169830 1     RESIDUE    1   A     ZIN   1
