@<TRIPOS>MOLECULE
ZINC000003813047
52   55    0    0    0
SMALL
USER_CHARGES
NO_NAME
@<TRIPOS>ATOM
1 C1        0.0261     1.5421     0.0111 C.3    1 <0>      -0.1800
2 C2        0.0392     0.0123    -0.0124 C.3    1 <0>       0.1400
3 O3        0.6943    -0.4584    -1.1919 O.3    1 <0>      -0.5500
4 C4       -1.4072    -0.5380     0.0566 C.3    1 <0>      -0.1500
5 C5       -1.5176    -1.3138     1.3977 C.3    1 <0>      -0.1100
6 C6       -0.4219    -0.6718     2.2556 C.3    1 <0>      -0.0800
7 H7       -0.7416     0.3089     2.6080 H      1 <0>       0.0700
8 C8        0.0877    -1.5082     3.4143 C.3    1 <0>      -0.0800
9 H9        0.4749    -2.4564     3.0415 H      1 <0>       0.0900
10 C10      -1.0369    -1.7682     4.4176 C.3    1 <0>      -0.1100
11 C11      -0.4891    -2.5656     5.6033 C.3    1 <0>      -0.1100
12 C12       0.6249    -1.7687     6.2840 C.3    1 <0>      -0.0800
13 H13       0.2282    -0.8184     6.6414 H      1 <0>       0.0800
14 C14       1.1777    -2.5723     7.4672 C.3    1 <0>      -0.1600
15 C15       2.3963    -1.8527     8.0025 C.2    1 <0>       0.4900
16 O16       2.5156    -1.6271     9.1835 O.2    1 <0>      -0.4600
17 O17       3.3462    -1.4704     7.1238 O.3    1 <0>      -0.3700
18 C18       2.8728    -0.7251     5.9668 C.3    1 <0>       0.0800
19 C19       1.7518    -1.5091     5.2787 C.3    1 <0>      -0.0900
20 C20       2.2960    -2.8499     4.7816 C.3    1 <0>      -0.1500
21 C21       1.2186    -0.7139     4.0863 C.3    1 <0>      -0.0600
22 H22       0.8054     0.2279     4.4476 H      1 <0>       0.0700
23 C23       2.3506    -0.4135     3.1100 C.3    1 <0>      -0.1200
24 C24       1.8311     0.3064     1.8540 C.3    1 <0>      -0.1000
25 C25       0.7363    -0.5294     1.2313 C.3    1 <0>      -0.0500
26 C26       1.2553    -1.9431     0.9610 C.3    1 <0>      -0.1400
27 H27       1.0505     1.9139     0.0356 H      1 <0>       0.0700
28 H28      -0.4745     1.9149    -0.8825 H      1 <0>       0.0600
29 H29      -0.5069     1.8873     0.8970 H      1 <0>       0.0700
30 H30       0.2827    -0.1622    -2.0153 H      1 <0>       0.3700
31 H31      -2.1217     0.2850     0.0407 H      1 <0>       0.0700
32 H32      -1.5919    -1.2106    -0.7810 H      1 <0>       0.0700
33 H33      -2.4982    -1.1652     1.8497 H      1 <0>       0.0700
34 H34      -1.3177    -2.3747     1.2472 H      1 <0>       0.0700
35 H35      -1.4346    -0.8173     4.7720 H      1 <0>       0.0600
36 H36      -1.8312    -2.3365     3.9337 H      1 <0>       0.0700
37 H37      -1.2912    -2.7516     6.3175 H      1 <0>       0.0700
38 H38      -0.0910    -3.5163     5.2487 H      1 <0>       0.0700
39 H39       0.4207    -2.6440     8.2482 H      1 <0>       0.1000
40 H40       1.4580    -3.5715     7.1337 H      1 <0>       0.1100
41 H41       2.4877     0.2423     6.2893 H      1 <0>       0.0700
42 H42       3.6957    -0.5761     5.2678 H      1 <0>       0.1100
43 H43       2.6743    -3.4244     5.6272 H      1 <0>       0.0600
44 H44       1.4973    -3.4071     4.2920 H      1 <0>       0.0700
45 H45       3.1039    -2.6734     4.0716 H      1 <0>       0.0600
46 H46       3.0890     0.2185     3.6035 H      1 <0>       0.0600
47 H47       2.8244    -1.3495     2.8143 H      1 <0>       0.0700
48 H48       1.3938     1.2658     2.1306 H      1 <0>       0.0600
49 H49       2.6487     0.4598     1.1496 H      1 <0>       0.0700
50 H50       1.6786    -2.3560     1.8767 H      1 <0>       0.0600
51 H51       0.4327    -2.5740     0.6243 H      1 <0>       0.0500
52 H52       2.0244    -1.9065     0.1895 H      1 <0>       0.0600
@<TRIPOS>BOND
1    1    2 1
2    1   27 1
3    1   28 1
4    1   29 1
5    2   25 1
6    2    3 1
7    2    4 1
8    3   30 1
9    4    5 1
10    4   31 1
11    4   32 1
12    5    6 1
13    5   33 1
14    5   34 1
15    6    7 1
16    6   25 1
17    6    8 1
18    8    9 1
19    8   21 1
20    8   10 1
21   10   11 1
22   10   35 1
23   10   36 1
24   11   12 1
25   11   37 1
26   11   38 1
27   12   13 1
28   12   19 1
29   12   14 1
30   14   15 1
31   14   39 1
32   14   40 1
33   15   16 2
34   15   17 1
35   17   18 1
36   18   19 1
37   18   41 1
38   18   42 1
39   19   20 1
40   19   21 1
41   20   43 1
42   20   44 1
43   20   45 1
44   21   22 1
45   21   23 1
46   23   24 1
47   23   46 1
48   23   47 1
49   24   25 1
50   24   48 1
51   24   49 1
52   25   26 1
53   26   50 1
54   26   51 1
55   26   52 1
