@<TRIPOS>MOLECULE
ZINC000001538857
67    70    1     0     0
SMALL
USER_CHARGES
@<TRIPOS>ATOM
1      C1     -0.0173    1.4248    0.0099 C.3      1 ZINC000001538857    0.0300
2      O2      0.0021   -0.0041    0.0020 O.3      1 ZINC000001538857   -0.3000
3      C3      0.6062   -0.6075   -1.0564 C.ar     1 ZINC000001538857    0.0900
4      C4      1.1727    0.1587   -2.0618 C.ar     1 ZINC000001538857   -0.1800
5      C5      1.7866   -0.4565   -3.1374 C.ar     1 ZINC000001538857   -0.1300
6      C6      1.8373   -1.8357   -3.2123 C.ar     1 ZINC000001538857   -0.1200
7      C7      1.2743   -2.6068   -2.2121 C.ar     1 ZINC000001538857   -0.1600
8      C8      0.6618   -1.9968   -1.1291 C.ar     1 ZINC000001538857    0.1300
9      O9      0.1077   -2.7533   -0.1447 O.3      1 ZINC000001538857   -0.2000
10     C10     0.1774   -4.1063   -0.2634 C.ar     1 ZINC000001538857   -0.0900
11     C11    -0.8282   -4.8205   -0.9210 C.ar     1 ZINC000001538857    0.4900
12     N12    -1.9204   -4.1589   -1.4668 N.pl3    1 ZINC000001538857   -1.0300
13     S13    -3.1050   -5.0169   -2.2433 S.o2     1 ZINC000001538857    2.6300
14     O14    -2.5062   -5.5606   -3.4117 O.2      1 ZINC000001538857   -1.0100
15     O15    -3.7387   -5.8137   -1.2520 O.2      1 ZINC000001538857   -1.0100
16     C16    -4.3114   -3.8577   -2.7960 C.ar     1 ZINC000001538857   -0.6300
17     C17    -5.3719   -3.5199   -1.9762 C.ar     1 ZINC000001538857   -0.0200
18     C18    -6.3184   -2.6105   -2.4098 C.ar     1 ZINC000001538857   -0.1400
19     C19    -6.2042   -2.0386   -3.6631 C.ar     1 ZINC000001538857   -0.0400
20     C20    -7.2363   -1.0475   -4.1360 C.3      1 ZINC000001538857   -0.0300
21     C21    -7.2669    0.1502   -3.1844 C.3      1 ZINC000001538857   -0.1400
22     C22    -6.8775   -0.5706   -5.5448 C.3      1 ZINC000001538857   -0.1400
23     C23    -8.6124   -1.7160   -4.1588 C.3      1 ZINC000001538857   -0.1400
24     C24    -5.1429   -2.3753   -4.4824 C.ar     1 ZINC000001538857   -0.1500
25     C25    -4.1944   -3.2818   -4.0472 C.ar     1 ZINC000001538857   -0.0200
26     N26    -0.7238   -6.1415   -1.0167 N.ar     1 ZINC000001538857   -0.5800
27     C27     0.3157   -6.7795   -0.4987 C.ar     1 ZINC000001538857    0.4300
28     C28     0.3936   -8.2560   -0.6278 C.ar     1 ZINC000001538857    0.3900
29     N29     1.4296   -8.8973   -0.1058 N.ar     1 ZINC000001538857   -0.4800
30     C30     1.5294  -10.2117   -0.2027 C.ar     1 ZINC000001538857    0.1400
31     C31     0.5336  -10.9191   -0.8600 C.ar     1 ZINC000001538857   -0.2300
32     C32    -0.5364  -10.2164   -1.3943 C.ar     1 ZINC000001538857    0.1400
33     N33    -0.5773   -8.9024   -1.2577 N.ar     1 ZINC000001538857   -0.4600
34     N34     1.2880   -6.1357    0.1311 N.ar     1 ZINC000001538857   -0.5900
35     C35     1.2570   -4.8153    0.2629 C.ar     1 ZINC000001538857    0.3700
36     O36     2.2572   -4.1653    0.9088 O.3      1 ZINC000001538857   -0.2800
37     C37     3.3218   -4.9650    1.4275 C.3      1 ZINC000001538857    0.0700
38     C38     4.3479   -4.0633    2.1168 C.3      1 ZINC000001538857    0.0800
39     O39     3.7488   -3.4454    3.2575 O.3      1 ZINC000001538857   -0.5600
40     H40     1.0053    1.8021    0.0021 H        1 ZINC000001538857    0.0500
41     H41    -0.5445    1.7859   -0.8732 H        1 ZINC000001538857    0.0500
42     H42    -0.5275    1.7763    0.9067 H        1 ZINC000001538857    0.0900
43     H43     1.1345    1.2366   -2.0058 H        1 ZINC000001538857    0.1300
44     H44     2.2273    0.1421   -3.9209 H        1 ZINC000001538857    0.1200
45     H45     2.3174   -2.3123   -4.0542 H        1 ZINC000001538857    0.1200
46     H46     1.3152   -3.6843   -2.2731 H        1 ZINC000001538857    0.1200
47     H47    -5.4612   -3.9668   -0.9971 H        1 ZINC000001538857    0.1400
48     H48    -7.1474   -2.3472   -1.7696 H        1 ZINC000001538857    0.1200
49     H49    -6.2866    0.6264   -3.1681 H        1 ZINC000001538857    0.0600
50     H50    -8.0134    0.8670   -3.5265 H        1 ZINC000001538857    0.0600
51     H51    -7.5225   -0.1896   -2.1808 H        1 ZINC000001538857    0.0600
52     H52    -6.8557   -1.4239   -6.2227 H        1 ZINC000001538857    0.0600
53     H53    -7.6241    0.1462   -5.8868 H        1 ZINC000001538857    0.0600
54     H54    -5.8972   -0.0944   -5.5285 H        1 ZINC000001538857    0.0600
55     H55    -8.8679   -2.0558   -3.1552 H        1 ZINC000001538857    0.0600
56     H56    -9.3589   -0.9992   -4.5009 H        1 ZINC000001538857    0.0600
57     H57    -8.5906   -2.5693   -4.8367 H        1 ZINC000001538857    0.0600
58     H58    -5.0535   -1.9281   -5.4614 H        1 ZINC000001538857    0.1300
59     H59    -3.3652   -3.5449   -4.6873 H        1 ZINC000001538857    0.1300
60     H60     2.3762  -10.7285    0.2243 H        1 ZINC000001538857    0.1700
61     H61     0.5902  -11.9936   -0.9539 H        1 ZINC000001538857    0.1500
62     H62    -1.3283  -10.7370   -1.9124 H        1 ZINC000001538857    0.1700
63     H63     2.9225   -5.6782    2.1485 H        1 ZINC000001538857    0.0700
64     H64     3.8023   -5.5041    0.6111 H        1 ZINC000001538857    0.0800
65     H65     5.2021   -4.6614    2.4341 H        1 ZINC000001538857    0.0600
66     H66     4.6816   -3.2941    1.4202 H        1 ZINC000001538857    0.0500
67     H67     4.3432   -2.8581    3.7443 H        1 ZINC000001538857    0.3800
@<TRIPOS>BOND
1     1     2     1
2     1     40    1
3     1     41    1
4     1     42    1
5     2     3     1
6     3     8     ar
7     3     4     ar
8     4     5     ar
9     4     43    1
10    5     6     ar
11    5     44    1
12    6     7     ar
13    6     45    1
14    7     8     ar
15    7     46    1
16    8     9     1
17    9     10    1
18    10    35    ar
19    10    11    ar
20    11    12    1
21    11    26    ar
22    12    13    1
23    13    14    2
24    13    15    2
25    13    16    1
26    16    25    ar
27    16    17    ar
28    17    18    ar
29    17    47    1
30    18    19    ar
31    18    48    1
32    19    20    1
33    19    24    ar
34    20    21    1
35    20    22    1
36    20    23    1
37    21    49    1
38    21    50    1
39    21    51    1
40    22    52    1
41    22    53    1
42    22    54    1
43    23    55    1
44    23    56    1
45    23    57    1
46    24    25    ar
47    24    58    1
48    25    59    1
49    26    27    ar
50    27    28    1
51    27    34    ar
52    28    33    ar
53    28    29    ar
54    29    30    ar
55    30    31    ar
56    30    60    1
57    31    32    ar
58    31    61    1
59    32    33    ar
60    32    62    1
61    34    35    ar
62    35    36    1
63    36    37    1
64    37    38    1
65    37    63    1
66    37    64    1
67    38    39    1
68    38    65    1
69    38    66    1
70    39    67    1
@<TRIPOS>SUBSTRUCTURE
1   ZINC000001538857 1     RESIDUE    1   A     ZIN   1
