@<TRIPOS>MOLECULE
ZINC000000097996
29   30    0    0    0
SMALL
USER_CHARGES
NO_NAME
@<TRIPOS>ATOM
1 C1       -0.0219     1.4593    -0.0052 C.3    1 <0>       0.0700
2 N2        0.0005    -0.0055    -0.0054 N.pl3  1 <0>      -0.5600
3 C3       -1.2481    -0.7755     0.1065 C.3    1 <0>       0.0900
4 C4       -0.9850    -1.9386     1.0746 C.3    1 <0>      -0.1600
5 C5        0.1459    -2.7978     0.5054 C.3    1 <0>       0.0700
6 N6        1.2825    -1.9661     0.1267 N.pl3  1 <0>      -0.6300
7 H7        2.1524    -2.3880     0.0478 H      1 <0>       0.4300
8 C8        1.1946    -0.6926    -0.1167 C.cat  1 <0>       0.5600
9 C9        2.4010     0.0386    -0.5099 C.2    1 <0>      -0.2500
10 C10       3.5577    -0.6290    -0.7203 C.2    1 <0>       0.0900
11 C11       4.7618     0.1009    -1.1128 C.2    1 <0>      -0.2600
12 C12       5.9854    -0.4599    -1.3587 C.2    1 <0>      -0.0500
13 C13       6.9441     0.4622    -1.7117 C.2    1 <0>      -0.1600
14 C14       6.5230     1.7306    -1.7537 C.2    1 <0>      -0.2100
15 S15       4.8685     1.8396    -1.3519 S.3    1 <0>       0.2300
16 H16       0.4781     1.8305    -0.8998 H      1 <0>       0.0900
17 H17      -1.0549     1.8069     0.0043 H      1 <0>       0.1100
18 H18       0.4945     1.8304     0.8801 H      1 <0>       0.0900
19 H19      -2.0417    -0.1394     0.4986 H      1 <0>       0.1200
20 H20      -1.5326    -1.1643    -0.8712 H      1 <0>       0.1000
21 H21      -0.6920    -1.5457     2.0482 H      1 <0>       0.0900
22 H22      -1.8873    -2.5416     1.1764 H      1 <0>       0.1300
23 H23       0.4635    -3.5186     1.2588 H      1 <0>       0.1200
24 H24      -0.2163    -3.3327    -0.3725 H      1 <0>       0.1100
25 H25       2.3666     1.1112    -0.6318 H      1 <0>       0.1600
26 H26       3.5920    -1.7015    -0.5984 H      1 <0>       0.1400
27 H27       6.1795    -1.5197    -1.2831 H      1 <0>       0.1600
28 H28       7.9622     0.1819    -1.9380 H      1 <0>       0.1500
29 H29       7.1465     2.5738    -2.0119 H      1 <0>       0.1800
@<TRIPOS>BOND
1    1    2 1
2    1   16 1
3    1   17 1
4    1   18 1
5    2    8 ar
6    2    3 1
7    3    4 1
8    3   19 1
9    3   20 1
10    4    5 1
11    4   21 1
12    4   22 1
13    5    6 1
14    5   23 1
15    5   24 1
16    6    7 1
17    6    8 ar
18    8    9 1
19    9   10 2
20    9   25 1
21   10   11 1
22   10   26 1
23   11   15 1
24   11   12 2
25   12   13 1
26   12   27 1
27   13   14 2
28   13   28 1
29   14   15 1
30   14   29 1
