@<TRIPOS>MOLECULE
ZINC000004676424
41    43    1     0     0
SMALL
USER_CHARGES
@<TRIPOS>ATOM
1      C1      2.2335    1.7873    3.8447 C.3      1 ZINC000004676424    0.0200
2      O2      2.3785    0.3774    4.0270 O.3      1 ZINC000004676424   -0.3000
3      C3      1.8250   -0.4266    3.0824 C.ar     1 ZINC000004676424    0.1600
4      C4      1.1555    0.1131    1.9896 C.ar     1 ZINC000004676424   -0.2500
5      C5      0.6061   -0.7373    1.0503 C.ar     1 ZINC000004676424    0.1400
6      N6      0.7087   -2.0460    1.1785 N.ar     1 ZINC000004676424   -0.4800
7      C7      1.3352   -2.5997    2.1999 C.ar     1 ZINC000004676424    0.1600
8      C8      1.4223   -4.1012    2.2953 C.3      1 ZINC000004676424   -0.4100
9      S9      0.0738   -4.7200    3.3389 S.o      1 ZINC000004676424    1.4100
10     O10    -1.1436   -4.6909    2.6064 O.2      1 ZINC000004676424   -0.7900
11     C11     0.4235   -6.4428    3.4582 C.2      1 ZINC000004676424   -0.0700
12     N12    -0.0142   -7.3506    2.6361 N.2      1 ZINC000004676424   -0.4100
13     C13     0.4435   -8.5717    3.0178 C.ar     1 ZINC000004676424    0.0100
14     C14     0.2834   -9.8621    2.5067 C.ar     1 ZINC000004676424   -0.0100
15     C15     0.8833  -10.9207    3.1270 C.ar     1 ZINC000004676424   -0.2000
16     C16     1.6564  -10.7284    4.2683 C.ar     1 ZINC000004676424    0.1400
17     O17     2.2463  -11.7935    4.8730 O.3      1 ZINC000004676424   -0.3200
18     C18     2.0295  -13.0767    4.2828 C.3      1 ZINC000004676424    0.4100
19     F19     0.6596  -13.3606    4.2742 F        1 ZINC000004676424   -0.2000
20     F20     2.5134  -13.0741    2.9702 F        1 ZINC000004676424   -0.2000
21     C21     1.8279   -9.4587    4.7902 C.ar     1 ZINC000004676424   -0.1400
22     C22     1.2235   -8.3743    4.1701 C.ar     1 ZINC000004676424    0.1000
23     N23     1.1961   -7.0169    4.4211 N.pl3    1 ZINC000004676424   -0.5600
24     C24     1.9184   -1.8170    3.1807 C.ar     1 ZINC000004676424    0.0200
25     O25     2.5631   -2.3929    4.2307 O.3      1 ZINC000004676424   -0.3200
26     C26     3.9795   -2.5450    4.1180 C.3      1 ZINC000004676424    0.0300
27     H27     1.1744    2.0442    3.8255 H        1 ZINC000004676424    0.0600
28     H28     2.7198    2.3119    4.6672 H        1 ZINC000004676424    0.1100
29     H29     2.6959    2.0813    2.9024 H        1 ZINC000004676424    0.0600
30     H30     1.0662    1.1834    1.8770 H        1 ZINC000004676424    0.1500
31     H31     0.0848   -0.3250    0.1990 H        1 ZINC000004676424    0.1700
32     H32     1.3382   -4.5340    1.2984 H        1 ZINC000004676424    0.1200
33     H33     2.3796   -4.3825    2.7340 H        1 ZINC000004676424    0.1400
34     H34    -0.3147  -10.0224    1.6218 H        1 ZINC000004676424    0.1400
35     H35     0.7563  -11.9164    2.7284 H        1 ZINC000004676424    0.1400
36     H36     2.5543  -13.8364    4.8621 H        1 ZINC000004676424    0.1900
37     H37     2.4283   -9.3123    5.6759 H        1 ZINC000004676424    0.1400
38     H38     1.6439   -6.5576    5.1486 H        1 ZINC000004676424    0.4300
39     H39     4.3787   -2.9353    5.0541 H        1 ZINC000004676424    0.1000
40     H40     4.2072   -3.2387    3.3086 H        1 ZINC000004676424    0.0500
41     H41     4.4331   -1.5770    3.9051 H        1 ZINC000004676424    0.0500
@<TRIPOS>BOND
1     1     2     1
2     1     27    1
3     1     28    1
4     1     29    1
5     2     3     1
6     3     24    ar
7     3     4     ar
8     4     5     ar
9     4     30    1
10    5     6     ar
11    5     31    1
12    6     7     ar
13    7     8     1
14    7     24    ar
15    8     9     1
16    8     32    1
17    8     33    1
18    9     10    2
19    9     11    1
20    11    23    1
21    11    12    2
22    12    13    1
23    13    22    ar
24    13    14    ar
25    14    15    ar
26    14    34    1
27    15    16    ar
28    15    35    1
29    16    17    1
30    16    21    ar
31    17    18    1
32    18    19    1
33    18    20    1
34    18    36    1
35    21    22    ar
36    21    37    1
37    22    23    1
38    23    38    1
39    24    25    1
40    25    26    1
41    26    39    1
42    26    40    1
43    26    41    1
@<TRIPOS>SUBSTRUCTURE
1   ZINC000004676424 1     RESIDUE    1   A     ZIN   1
