@<TRIPOS>MOLECULE
ZINC000000035804
31    32    1     0     0
SMALL
USER_CHARGES
@<TRIPOS>ATOM
1      N1     -0.4346    1.7275    0.1379 N.am     1 ZINC000000035804   -1.2500
2      S2     -0.3223    0.0753    0.1393 S.o2     1 ZINC000000035804    2.7100
3      O3      1.0646   -0.2327    0.1122 O.2      1 ZINC000000035804   -0.9600
4      O4     -1.2011   -0.3857    1.1564 O.2      1 ZINC000000035804   -0.9600
5      C5     -0.9885   -0.4940   -1.3893 C.ar     1 ZINC000000035804   -0.7500
6      C6     -0.1727   -1.1302   -2.2964 C.ar     1 ZINC000000035804    0.0700
7      C7     -0.6994   -1.5834   -3.5115 C.ar     1 ZINC000000035804   -0.2300
8      C8      0.1661   -2.2642   -4.4847 C.2      1 ZINC000000035804    0.5300
9      O9      1.3712   -2.3376   -4.2856 O.co2    1 ZINC000000035804   -0.6700
10     O10    -0.3184   -2.7577   -5.4943 O.co2    1 ZINC000000035804   -0.6800
11     C11    -2.0617   -1.3835   -3.7946 C.ar     1 ZINC000000035804    0.3100
12     N12    -2.5971   -1.8279   -4.9947 N.pl3    1 ZINC000000035804   -0.7100
13     C13    -3.9839   -1.5072   -5.3414 C.3      1 ZINC000000035804    0.1900
14     C14    -4.3161   -2.1024   -6.6855 C.2      1 ZINC000000035804   -0.0200
15     C15    -4.8286   -3.3278   -6.8982 C.2      1 ZINC000000035804   -0.1900
16     C16    -4.9807   -3.4710   -8.2965 C.2      1 ZINC000000035804   -0.2200
17     C17    -4.5520   -2.3247   -8.8546 C.2      1 ZINC000000035804   -0.0300
18     O18    -4.1561   -1.4972   -7.8737 O.3      1 ZINC000000035804   -0.1700
19     C19    -2.8689   -0.7390   -2.8659 C.ar     1 ZINC000000035804   -0.2300
20     C20    -2.3348   -0.3031   -1.6695 C.ar     1 ZINC000000035804    0.1000
21     Cl21   -3.3504    0.5010   -0.5138 Cl       1 ZINC000000035804   -0.0700
22     H22     0.3671    2.2682    0.2152 H        1 ZINC000000035804    0.4200
23     H23    -1.3016    2.1547    0.0559 H        1 ZINC000000035804    0.4100
24     H24     0.8730   -1.2795   -2.0713 H        1 ZINC000000035804    0.1600
25     H25    -2.0533   -2.3510   -5.6042 H        1 ZINC000000035804    0.4300
26     H26    -4.6522   -1.9204   -4.5859 H        1 ZINC000000035804    0.0900
27     H27    -4.1071   -0.4250   -5.3828 H        1 ZINC000000035804    0.0800
28     H28    -5.0759   -4.0616   -6.1454 H        1 ZINC000000035804    0.1500
29     H29    -5.3667   -4.3352   -8.8167 H        1 ZINC000000035804    0.1500
30     H30    -4.5333   -2.1054   -9.9120 H        1 ZINC000000035804    0.2000
31     H31    -3.9162   -0.5823   -3.0780 H        1 ZINC000000035804    0.1300
@<TRIPOS>BOND
1     1     2     am
2     1     22    1
3     1     23    1
4     2     3     2
5     2     4     2
6     2     5     1
7     5     20    ar
8     5     6     ar
9     6     7     ar
10    6     24    1
11    7     8     1
12    7     11    ar
13    8     9     ar
14    8     10    ar
15    11    12    1
16    11    19    ar
17    12    13    1
18    12    25    1
19    13    14    1
20    13    26    1
21    13    27    1
22    14    18    1
23    14    15    2
24    15    16    1
25    15    28    1
26    16    17    2
27    16    29    1
28    17    18    1
29    17    30    1
30    19    20    ar
31    19    31    1
32    20    21    1
@<TRIPOS>SUBSTRUCTURE
1   ZINC000000035804 1     RESIDUE    1   A     ZIN   1
