@<TRIPOS>MOLECULE
ZINC000013597823
28    30    1     0     0
SMALL
USER_CHARGES
@<TRIPOS>ATOM
1      O1      0.0021   -0.0041    0.0020 O.2      1 ZINC000013597823   -0.5900
2      C2     -0.0145    1.2148    0.0087 C.2      1 ZINC000013597823    0.5400
3      N3     -1.1834    1.8932    0.0292 N.pl3    1 ZINC000013597823   -0.6800
4      C4     -1.1897    3.2501    0.0364 C.2      1 ZINC000013597823    0.3600
5      N5     -0.0897    3.9495    0.0238 N.2      1 ZINC000013597823   -0.6400
6      C6      1.1117    3.3553    0.0033 C.2      1 ZINC000013597823    0.2900
7      C7      1.1915    1.9593    0.0012 C.2      1 ZINC000013597823   -0.1700
8      N8      2.5042    1.6313   -0.0218 N.2      1 ZINC000013597823   -0.4400
9      C9      3.2196    2.7189   -0.0338 C.2      1 ZINC000013597823    0.1700
10     N10     2.4020    3.8092   -0.0142 N.pl3    1 ZINC000013597823   -0.4800
11     C11     2.8271    5.2112   -0.0198 C.3      1 ZINC000013597823    0.3100
12     H12     2.1255    5.8079   -0.6026 H        1 ZINC000013597823    0.1100
13     C13     2.8921    5.7445    1.4275 C.3      1 ZINC000013597823   -0.1600
14     C14     4.4040    5.6159    1.7586 C.3      1 ZINC000013597823   -0.1500
15     C15     5.0344    5.9130    0.3748 C.3      1 ZINC000013597823    0.0800
16     H16     5.1003    6.9888    0.2122 H        1 ZINC000013597823    0.0800
17     C17     6.4220    5.2760    0.2755 C.3      1 ZINC000013597823    0.0800
18     O18     7.0339    5.6570   -0.9583 O.3      1 ZINC000013597823   -0.5700
19     O19     4.1402    5.3185   -0.5819 O.3      1 ZINC000013597823   -0.3600
20     H20    -2.1374    3.7678    0.0529 H        1 ZINC000013597823    0.1700
21     H21     4.2989    2.7523   -0.0526 H        1 ZINC000013597823    0.1900
22     H22     2.5725    6.7857    1.4720 H        1 ZINC000013597823    0.0900
23     H23     2.2944    5.1252    2.0964 H        1 ZINC000013597823    0.0900
24     H24     4.7090    6.3577    2.4968 H        1 ZINC000013597823    0.0900
25     H25     4.6484    4.6078    2.0934 H        1 ZINC000013597823    0.0800
26     H26     7.0385    5.6166    1.1073 H        1 ZINC000013597823    0.0600
27     H27     6.3271    4.1908    0.3141 H        1 ZINC000013597823    0.0600
28     H28     7.9183    5.2885   -1.0890 H        1 ZINC000013597823    0.3800
@<TRIPOS>BOND
1     1     2     2
2     2     7     1
3     2     3     1
4     3     4     1
5     4     5     2
6     4     20    1
7     5     6     1
8     6     10    1
9     6     7     2
10    7     8     1
11    8     9     2
12    9     10    1
13    9     21    1
14    10    11    1
15    11    12    1
16    11    19    1
17    11    13    1
18    13    14    1
19    13    22    1
20    13    23    1
21    14    15    1
22    14    24    1
23    14    25    1
24    15    16    1
25    15    17    1
26    15    19    1
27    17    18    1
28    17    26    1
29    17    27    1
30    18    28    1
@<TRIPOS>SUBSTRUCTURE
1   ZINC000013597823 1     RESIDUE    1   A     ZIN   1
