@<TRIPOS>MOLECULE
ZINC000035342789
30   31    0    0    0
SMALL
USER_CHARGES
NO_NAME
@<TRIPOS>ATOM
1 C1       -0.1117     1.5007     0.0181 C.3    1 <0>      -0.1200
2 C2       -0.0668    -0.0056     0.0078 C.ar   1 <0>      -0.0600
3 C3       -0.3013    -0.6937    -1.1697 C.ar   1 <0>      -0.1400
4 C4       -0.2613    -2.0723    -1.1864 C.ar   1 <0>      -0.0600
5 C5        0.0166    -2.7738    -0.0111 C.ar   1 <0>      -0.1600
6 C6        0.0616    -4.2509    -0.0214 C.2    1 <0>       0.4500
7 O7       -0.0068    -4.8539    -1.0750 O.2    1 <0>      -0.4700
8 C8        0.1894    -4.9935     1.2464 C.ar   1 <0>      -0.2800
9 C9       -0.4125    -4.5033     2.4097 C.ar   1 <0>      -0.0400
10 C10      -0.2901    -5.2028     3.5939 C.ar   1 <0>      -0.0200
11 O11      -0.8742    -4.7290     4.7270 O.3    1 <0>      -0.4800
12 C12       0.4320    -6.3954     3.6280 C.ar   1 <0>       0.3100
13 O13       0.5505    -7.0824     4.7931 O.3    1 <0>      -0.6100
14 C14       1.0298    -6.8824     2.4728 C.ar   1 <0>      -0.2000
15 N15       1.7950    -8.1487     2.5149 N.pl3  1 <0>       0.0700
16 O16       2.3199    -8.5771     1.5027 O.2    1 <0>      -0.2500
17 O17       1.8998    -8.7624     3.5618 O.2    1 <0>      -0.1600
18 C18       0.9078    -6.1925     1.2869 C.ar   1 <0>       0.0500
19 C19       0.2523    -2.0730     1.1737 C.ar   1 <0>      -0.0700
20 C20       0.2144    -0.6942     1.1748 C.ar   1 <0>      -0.1300
21 H21       0.8802     1.8952    -0.2025 H      1 <0>       0.0700
22 H22      -0.8171     1.8483    -0.7367 H      1 <0>       0.0700
23 H23      -0.4306     1.8480     1.0008 H      1 <0>       0.0700
24 H24      -0.5164    -0.1499    -2.0777 H      1 <0>       0.1200
25 H25      -0.4448    -2.6080    -2.1060 H      1 <0>       0.1300
26 H26      -0.9715    -3.5796     2.3819 H      1 <0>       0.1300
27 H27      -1.7785    -5.0430     4.8642 H      1 <0>       0.3700
28 H28       1.3734    -6.5736     0.3900 H      1 <0>       0.1400
29 H29       0.4674    -2.6093     2.0861 H      1 <0>       0.1400
30 H30       0.3964    -0.1510     2.0903 H      1 <0>       0.1300
@<TRIPOS>BOND
1    1    2 1
2    1   21 1
3    1   22 1
4    1   23 1
5    2   20 ar
6    2    3 ar
7    3    4 ar
8    3   24 1
9    4    5 ar
10    4   25 1
11    5    6 1
12    5   19 ar
13    6    7 2
14    6    8 1
15    8   18 ar
16    8    9 ar
17    9   10 ar
18    9   26 1
19   10   11 1
20   10   12 ar
21   11   27 1
22   12   13 1
23   12   14 ar
24   14   15 1
25   14   18 ar
26   15   16 2
27   15   17 2
28   18   28 1
29   19   20 ar
30   19   29 1
31   20   30 1
