@<TRIPOS>MOLECULE
ZINC000019166991
22   22    0    0    0
SMALL
USER_CHARGES
NO_NAME
@<TRIPOS>ATOM
1 N1       -0.0176     1.4498     0.0100 N.3    1 <0>      -0.6700
2 N2        0.0021    -0.0041     0.0020 N.3    1 <0>      -0.5100
3 C3       -1.3620    -0.5491     0.0121 C.3    1 <0>       0.0600
4 C4       -1.3005    -2.0779     0.0033 C.3    1 <0>      -0.0800
5 C5       -2.6999    -2.6370     0.0137 C.ar   1 <0>      -0.0800
6 C6       -3.3324    -2.8946     1.2155 C.ar   1 <0>      -0.1100
7 C7       -4.6160    -3.4075     1.2251 C.ar   1 <0>      -0.1200
8 C8       -5.2673    -3.6624     0.0327 C.ar   1 <0>      -0.1200
9 C9       -4.6351    -3.4040    -1.1692 C.ar   1 <0>      -0.1200
10 C10      -3.3531    -2.8870    -1.1787 C.ar   1 <0>      -0.1200
11 H11       0.9193     1.8242     0.0031 H      1 <0>       0.3600
12 H12      -0.5561     1.8084    -0.7643 H      1 <0>       0.3100
13 H13       0.5256    -0.3543    -0.7863 H      1 <0>       0.3100
14 H14      -1.8815    -0.2116     0.9089 H      1 <0>       0.0900
15 H15      -1.8985    -0.2020    -0.8709 H      1 <0>       0.0300
16 H16      -0.7810    -2.4154    -0.8935 H      1 <0>       0.0700
17 H17      -0.7640    -2.4250     0.8864 H      1 <0>       0.0900
18 H18      -2.8235    -2.6954     2.1471 H      1 <0>       0.1200
19 H19      -5.1099    -3.6094     2.1640 H      1 <0>       0.1200
20 H20      -6.2699    -4.0638     0.0401 H      1 <0>       0.1200
21 H21      -5.1439    -3.6034    -2.1007 H      1 <0>       0.1200
22 H22      -2.8592    -2.6851    -2.1176 H      1 <0>       0.1200
@<TRIPOS>BOND
1    1    2 1
2    1   11 1
3    1   12 1
4    2    3 1
5    2   13 1
6    3    4 1
7    3   14 1
8    3   15 1
9    4    5 1
10    4   16 1
11    4   17 1
12    5   10 ar
13    5    6 ar
14    6    7 ar
15    6   18 1
16    7    8 ar
17    7   19 1
18    8    9 ar
19    8   20 1
20    9   10 ar
21    9   21 1
22   10   22 1
