@<TRIPOS>MOLECULE
ZINC000021297660
63    65    1     0     0
SMALL
USER_CHARGES
@<TRIPOS>ATOM
1      C1      4.3218   -1.3487   -2.6491 C.3      1 ZINC000021297660    0.0300
2      O2      4.2393   -2.3001   -1.5861 O.3      1 ZINC000021297660   -0.3200
3      C3      5.1369   -2.1749   -0.5761 C.ar     1 ZINC000021297660    0.1500
4      C4      6.3960   -2.7600   -0.6895 C.ar     1 ZINC000021297660   -0.0900
5      C5      6.7587   -3.5308   -1.9326 C.3      1 ZINC000021297660   -0.1200
6      C6      7.3059   -2.6347    0.3288 C.ar     1 ZINC000021297660   -0.0700
7      C7      6.9785   -1.9204    1.4879 C.ar     1 ZINC000021297660   -0.2300
8      C8      8.1371   -1.9582    2.3892 C.2      1 ZINC000021297660    0.5200
9      O9      8.1824   -1.4327    3.4843 O.2      1 ZINC000021297660   -0.4400
10     O10     9.1402   -2.6571    1.8309 O.3      1 ZINC000021297660   -0.3200
11     C11     8.7171   -3.1305    0.5228 C.3      1 ZINC000021297660    0.0900
12     C12     5.7088   -1.3321    1.5999 C.ar     1 ZINC000021297660    0.2100
13     O13     5.3762   -0.6370    2.7162 O.3      1 ZINC000021297660   -0.4800
14     C14     4.7999   -1.4597    0.5639 C.ar     1 ZINC000021297660   -0.1300
15     C15     3.4358   -0.8295    0.6795 C.3      1 ZINC000021297660   -0.0500
16     C16     3.5145    0.6177    0.2665 C.2      1 ZINC000021297660   -0.1500
17     C17     3.0756    1.5533    1.0715 C.2      1 ZINC000021297660   -0.1300
18     C18     2.3648    1.1781    2.3463 C.3      1 ZINC000021297660   -0.1200
19     C19     3.2815    3.0049    0.7229 C.3      1 ZINC000021297660   -0.0700
20     C20     2.0362    3.5406    0.0135 C.3      1 ZINC000021297660   -0.1100
21     C21     2.2422    4.9922   -0.3352 C.2      1 ZINC000021297660    0.4700
22     O22     3.2786    5.5418   -0.0460 O.2      1 ZINC000021297660   -0.4800
23     O23     1.2742    5.6745   -0.9671 O.3      1 ZINC000021297660   -0.3800
24     C24     1.5416    7.0688   -1.2714 C.3      1 ZINC000021297660    0.0300
25     C25     0.3327    7.6757   -1.9864 C.3      1 ZINC000021297660    0.0000
26     N26    -0.8188    7.6909   -1.0744 N.4      1 ZINC000021297660   -0.3900
27     H27    -0.9840    6.7587   -0.7255 H        1 ZINC000021297660    0.4300
28     C28    -2.0090    8.1622   -1.7957 C.3      1 ZINC000021297660   -0.0400
29     C29    -3.2073    8.1769   -0.8434 C.3      1 ZINC000021297660    0.0400
30     O30    -2.9079    9.0122    0.2784 O.3      1 ZINC000021297660   -0.3600
31     C31    -1.7414    8.6072    1.0002 C.3      1 ZINC000021297660    0.0400
32     C32    -0.5402    8.5932    0.0514 C.3      1 ZINC000021297660   -0.0500
33     H33     4.0846   -0.3557   -2.2672 H        1 ZINC000021297660    0.0500
34     H34     5.3318   -1.3486   -3.0590 H        1 ZINC000021297660    0.0500
35     H35     3.6120   -1.6160   -3.4319 H        1 ZINC000021297660    0.1000
36     H36     7.2077   -2.8555   -2.6609 H        1 ZINC000021297660    0.0800
37     H37     7.4705   -4.3162   -1.6783 H        1 ZINC000021297660    0.0800
38     H38     5.8603   -3.9784   -2.3577 H        1 ZINC000021297660    0.0800
39     H39     8.7384   -4.2199    0.4941 H        1 ZINC000021297660    0.1200
40     H40     9.3670   -2.7223   -0.2512 H        1 ZINC000021297660    0.1200
41     H41     5.5902    0.3049    2.6714 H        1 ZINC000021297660    0.4000
42     H42     2.7364   -1.3554    0.0296 H        1 ZINC000021297660    0.0900
43     H43     3.0918   -0.8946    1.7117 H        1 ZINC000021297660    0.1000
44     H44     3.9326    0.8834   -0.6931 H        1 ZINC000021297660    0.1100
45     H45     3.0990    0.9860    3.1287 H        1 ZINC000021297660    0.0800
46     H46     1.7126    1.9959    2.6529 H        1 ZINC000021297660    0.0600
47     H47     1.7686    0.2809    2.1793 H        1 ZINC000021297660    0.0700
48     H48     3.4544    3.5766    1.6347 H        1 ZINC000021297660    0.0800
49     H49     4.1446    3.1014    0.0643 H        1 ZINC000021297660    0.0800
50     H50     1.8633    2.9689   -0.8983 H        1 ZINC000021297660    0.1100
51     H51     1.1731    3.4440    0.6721 H        1 ZINC000021297660    0.1100
52     H52     1.7275    7.6136   -0.3458 H        1 ZINC000021297660    0.1000
53     H53     2.4177    7.1384   -1.9162 H        1 ZINC000021297660    0.1200
54     H54     0.5663    8.6951   -2.2937 H        1 ZINC000021297660    0.1500
55     H55     0.0923    7.0774   -2.8652 H        1 ZINC000021297660    0.1500
56     H56    -1.8310    9.1697   -2.1718 H        1 ZINC000021297660    0.1400
57     H57    -2.2165    7.4933   -2.6310 H        1 ZINC000021297660    0.1400
58     H58    -4.0816    8.5669   -1.3646 H        1 ZINC000021297660    0.1400
59     H59    -3.4105    7.1631   -0.4984 H        1 ZINC000021297660    0.0800
60     H60    -1.5547    9.3087    1.8134 H        1 ZINC000021297660    0.1400
61     H61    -1.8944    7.6082    1.4083 H        1 ZINC000021297660    0.0800
62     H62     0.3425    8.2443    0.5875 H        1 ZINC000021297660    0.1400
63     H63    -0.3627    9.6004   -0.3254 H        1 ZINC000021297660    0.1400
@<TRIPOS>BOND
1     1     2     1
2     1     33    1
3     1     34    1
4     1     35    1
5     2     3     1
6     3     14    ar
7     3     4     ar
8     4     5     1
9     4     6     ar
10    5     36    1
11    5     37    1
12    5     38    1
13    6     11    1
14    6     7     ar
15    7     8     1
16    7     12    ar
17    8     9     2
18    8     10    1
19    10    11    1
20    11    39    1
21    11    40    1
22    12    13    1
23    12    14    ar
24    13    41    1
25    14    15    1
26    15    16    1
27    15    42    1
28    15    43    1
29    16    17    2
30    16    44    1
31    17    18    1
32    17    19    1
33    18    45    1
34    18    46    1
35    18    47    1
36    19    20    1
37    19    48    1
38    19    49    1
39    20    21    1
40    20    50    1
41    20    51    1
42    21    22    2
43    21    23    1
44    23    24    1
45    24    25    1
46    24    52    1
47    24    53    1
48    25    26    1
49    25    54    1
50    25    55    1
51    26    27    1
52    26    32    1
53    26    28    1
54    28    29    1
55    28    56    1
56    28    57    1
57    29    30    1
58    29    58    1
59    29    59    1
60    30    31    1
61    31    32    1
62    31    60    1
63    31    61    1
64    32    62    1
65    32    63    1
@<TRIPOS>SUBSTRUCTURE
1   ZINC000021297660 1     RESIDUE    1   A     ZIN   1
