@<TRIPOS>MOLECULE
ZINC000013818943
46   49    0    0    0
SMALL
USER_CHARGES
NO_NAME
@<TRIPOS>ATOM
1 C1       -0.0178     1.4608     0.0101 C.3    1 <0>       0.0900
2 N2        0.0021    -0.0041     0.0020 N.am   1 <0>      -0.7300
3 C3        0.6044    -0.6754     1.0035 C.2    1 <0>       0.6000
4 O4        1.1313    -0.0651     1.9139 O.2    1 <0>      -0.5400
5 C5        0.6244    -2.1495     0.9954 C.2    1 <0>      -0.2900
6 C6        1.1951    -2.9659     1.9501 C.2    1 <0>       0.1700
7 N7        0.9909    -4.2399     1.5636 N.pl3  1 <0>      -0.3000
8 C8        1.4111    -5.3786     2.2519 C.ar   1 <0>       0.6200
9 N9        2.0679    -5.2296     3.3936 N.ar   1 <0>      -0.6000
10 C10       2.4889    -6.2820     4.0862 C.ar   1 <0>       0.5400
11 N11       3.1734    -6.1167     5.2774 N.pl3  1 <0>      -0.8100
12 C12       2.2233    -7.5672     3.5827 C.ar   1 <0>      -0.1100
13 N13       2.4911    -8.8275     4.0024 N.2    1 <0>      -0.4500
14 C14       2.0125    -9.6807     3.1444 C.2    1 <0>       0.2700
15 N15       1.4060    -9.0188     2.1179 N.pl3  1 <0>      -0.4700
16 C16       0.7487    -9.6303     0.9602 C.3    1 <0>       0.3100
17 H17      -0.1231    -9.0473     0.6630 H      1 <0>       0.1300
18 O18       0.3737   -10.9940     1.2501 O.3    1 <0>      -0.3500
19 C19       0.2221   -11.6649    -0.0121 C.3    1 <0>       0.0500
20 H20      -0.8175   -11.6151    -0.3358 H      1 <0>       0.1000
21 C21       0.6562   -13.1261     0.1199 C.3    1 <0>       0.0800
22 O22      -0.2474   -13.8150     0.9865 O.3    1 <0>      -0.5600
23 C23       1.1229   -10.9372    -1.0288 C.3    1 <0>       0.0400
24 H24       1.9027   -11.6053    -1.3944 H      1 <0>       0.0900
25 O25       0.3447   -10.4357    -2.1174 O.3    1 <0>      -0.5400
26 C26       1.7420    -9.7679    -0.2217 C.3    1 <0>       0.0800
27 H27       2.7374   -10.0279     0.1385 H      1 <0>       0.0900
28 O28       1.7815    -8.5728    -1.0041 O.3    1 <0>      -0.5200
29 C29       1.5238    -7.6749     2.3687 C.ar   1 <0>       0.3400
30 N30       1.1356    -6.5677     1.7453 N.ar   1 <0>      -0.5300
31 N31       0.2856    -4.2281     0.3550 N.2    1 <0>      -0.2500
32 C32       0.0570    -2.9910     0.0110 C.2    1 <0>       0.0900
33 H33       1.0048     1.8381     0.0023 H      1 <0>       0.0600
34 H34      -0.5450     1.8219    -0.8730 H      1 <0>       0.0800
35 H35      -0.5280     1.8123     0.9069 H      1 <0>       0.0600
36 H36      -0.4183    -0.4908    -0.7241 H      1 <0>       0.4000
37 H37       1.7108    -2.6431     2.8424 H      1 <0>       0.2000
38 H38       3.3507    -5.2248     5.6152 H      1 <0>       0.4100
39 H39       3.4761    -6.8926     5.7746 H      1 <0>       0.4200
40 H40       2.0851   -10.7547     3.2322 H      1 <0>       0.2300
41 H41       0.6479   -13.5978    -0.8627 H      1 <0>       0.0700
42 H42       1.6629   -13.1699     0.5355 H      1 <0>       0.0600
43 H43      -0.0327   -14.7489     1.1165 H      1 <0>       0.3900
44 H44      -0.1126   -11.1216    -2.6228 H      1 <0>       0.3900
45 H45       2.3213    -8.6436    -1.8033 H      1 <0>       0.3900
46 H46      -0.4674    -2.6659    -0.8754 H      1 <0>       0.2000
@<TRIPOS>BOND
1    1    2 1
2    1   33 1
3    1   34 1
4    1   35 1
5    2    3 am
6    2   36 1
7    3    4 2
8    3    5 1
9    5   32 1
10    5    6 2
11    6    7 1
12    6   37 1
13    7    8 1
14    7   31 1
15    8   30 ar
16    8    9 ar
17    9   10 ar
18   10   11 1
19   10   12 ar
20   11   38 1
21   11   39 1
22   12   29 ar
23   12   13 1
24   13   14 2
25   14   15 1
26   14   40 1
27   15   16 1
28   15   29 1
29   16   17 1
30   16   26 1
31   16   18 1
32   18   19 1
33   19   20 1
34   19   21 1
35   19   23 1
36   21   22 1
37   21   41 1
38   21   42 1
39   22   43 1
40   23   24 1
41   23   25 1
42   23   26 1
43   25   44 1
44   26   27 1
45   26   28 1
46   28   45 1
47   29   30 ar
48   31   32 2
49   32   46 1
