@<TRIPOS>MOLECULE
ZINC000001530810
15    14    1     0     0
SMALL
USER_CHARGES
@<TRIPOS>ATOM
1      F1      0.0021   -0.0041    0.0020 F        1 ZINC000001530810   -0.2100
2      C2     -0.0169    1.3948    0.0097 C.3      1 ZINC000001530810    0.2100
3      O3      1.3237    1.8894   -0.0004 O.3      1 ZINC000001530810   -0.3400
4      C4      1.9739    1.7804   -1.2683 C.3      1 ZINC000001530810   -0.0100
5      C5      1.7202    3.0507   -2.0825 C.3      1 ZINC000001530810    0.4400
6      F6      2.2276    4.1564   -1.3917 F        1 ZINC000001530810   -0.1600
7      F7      2.3567    2.9439   -3.3237 F        1 ZINC000001530810   -0.1600
8      F8      0.3443    3.2132   -2.2764 F        1 ZINC000001530810   -0.1700
9      C9      3.4787    1.6026   -1.0561 C.3      1 ZINC000001530810    0.4700
10     F10     3.7107    0.4411   -0.3117 F        1 ZINC000001530810   -0.1600
11     F11     4.1152    1.4959   -2.2974 F        1 ZINC000001530810   -0.1600
12     F12     3.9861    2.7084   -0.3654 F        1 ZINC000001530810   -0.1600
13     H13    -0.5441    1.7559   -0.8734 H        1 ZINC000001530810    0.0900
14     H14    -0.5271    1.7463    0.9065 H        1 ZINC000001530810    0.1400
15     H15     1.5786    0.9189   -1.8064 H        1 ZINC000001530810    0.1600
@<TRIPOS>BOND
1     1     2     1
2     2     3     1
3     2     13    1
4     2     14    1
5     3     4     1
6     4     5     1
7     4     9     1
8     4     15    1
9     5     6     1
10    5     7     1
11    5     8     1
12    9     10    1
13    9     11    1
14    9     12    1
@<TRIPOS>SUBSTRUCTURE
1   ZINC000001530810 1     RESIDUE    1   A     ZIN   1
