@<TRIPOS>MOLECULE
ZINC000001853550
38   40    0    0    0
SMALL
USER_CHARGES
NO_NAME
@<TRIPOS>ATOM
1 C1       -0.0178     1.4648     0.0101 C.3    1 <0>      -0.0600
2 N2        0.0021    -0.0041     0.0020 N.4    1 <0>      -0.5100
3 H3        0.4901    -0.3383     0.8195 H      1 <0>       0.4300
4 H4       -0.9445    -0.3533     0.0092 H      1 <0>       0.4200
5 C5        0.6897    -0.4778    -1.2066 C.3    1 <0>       0.0800
6 H6        1.6810    -0.0273    -1.2560 H      1 <0>       0.1500
7 C7        0.8296    -1.9974    -1.1435 C.3    1 <0>      -0.1400
8 C8       -0.5639    -2.6186    -1.2945 C.3    1 <0>      -0.1200
9 C9       -1.0366    -2.3987    -2.7301 C.3    1 <0>      -0.0100
10 H10      -0.4342    -3.0076    -3.4042 H      1 <0>       0.1100
11 C11      -2.4816    -2.8104    -2.8461 C.ar   1 <0>      -0.0700
12 C12      -3.4432    -2.1800    -2.0790 C.ar   1 <0>      -0.1000
13 C13      -4.7692    -2.5567    -2.1845 C.ar   1 <0>      -0.0900
14 C14      -5.1342    -3.5649    -3.0580 C.ar   1 <0>      -0.0300
15 Cl15     -6.7992    -4.0380    -3.1912 Cl     1 <0>      -0.0300
16 C16      -4.1708    -4.1966    -3.8266 C.ar   1 <0>      -0.0300
17 Cl17     -4.6273    -5.4623    -4.9235 Cl     1 <0>      -0.0300
18 C18      -2.8455    -3.8145    -3.7239 C.ar   1 <0>      -0.0900
19 C19      -0.9015    -0.9488    -3.1156 C.ar   1 <0>      -0.0400
20 C20      -1.6192    -0.5032    -4.2178 C.ar   1 <0>      -0.1100
21 C21      -1.5335     0.8122    -4.6251 C.ar   1 <0>      -0.0800
22 C22      -0.7264     1.6943    -3.9315 C.ar   1 <0>      -0.1100
23 C23      -0.0143     1.2540    -2.8347 C.ar   1 <0>      -0.1100
24 C24      -0.1025    -0.0695    -2.4210 C.ar   1 <0>      -0.1500
25 H25       1.0047     1.8421     0.0024 H      1 <0>       0.1300
26 H26      -0.5450     1.8259    -0.8730 H      1 <0>       0.1300
27 H27      -0.5280     1.8163     0.9069 H      1 <0>       0.1300
28 H28       1.4741    -2.3406    -1.9527 H      1 <0>       0.1200
29 H29       1.2585    -2.2869    -0.1841 H      1 <0>       0.1000
30 H30      -0.5144    -3.6869    -1.0839 H      1 <0>       0.1000
31 H31      -1.2565    -2.1394    -0.6025 H      1 <0>       0.0600
32 H32      -3.1584    -1.3928    -1.3965 H      1 <0>       0.1300
33 H33      -5.5199    -2.0639    -1.5845 H      1 <0>       0.1500
34 H34      -2.0938    -4.3065    -4.3233 H      1 <0>       0.1500
35 H35      -2.2493    -1.1921    -4.7608 H      1 <0>       0.1300
36 H36      -2.0950     1.1515    -5.4831 H      1 <0>       0.1400
37 H37      -0.6530     2.7245    -4.2473 H      1 <0>       0.1400
38 H38       0.6166     1.9437    -2.2938 H      1 <0>       0.1300
@<TRIPOS>BOND
1    1    2 1
2    1   25 1
3    1   26 1
4    1   27 1
5    2    3 1
6    2    4 1
7    2    5 1
8    5    6 1
9    5   24 1
10    5    7 1
11    7    8 1
12    7   28 1
13    7   29 1
14    8    9 1
15    8   30 1
16    8   31 1
17    9   10 1
18    9   11 1
19    9   19 1
20   11   18 ar
21   11   12 ar
22   12   13 ar
23   12   32 1
24   13   14 ar
25   13   33 1
26   14   15 1
27   14   16 ar
28   16   17 1
29   16   18 ar
30   18   34 1
31   19   24 ar
32   19   20 ar
33   20   21 ar
34   20   35 1
35   21   22 ar
36   21   36 1
37   22   23 ar
38   22   37 1
39   23   24 ar
40   23   38 1
