@<TRIPOS>MOLECULE
ZINC000003871703
52   54    0    0    0
SMALL
USER_CHARGES
NO_NAME
@<TRIPOS>ATOM
1 O1        0.0021    -0.0041     0.0020 O.co2  1 <0>      -0.7000
2 C2       -0.0145     1.2150     0.0087 C.2    1 <0>       0.4900
3 O3        1.0330     1.8389     0.0021 O.co2  1 <0>      -0.6900
4 C4       -1.3296     1.9507     0.0190 C.3    1 <0>      -0.1800
5 C5       -2.4790     0.9408     0.0189 C.3    1 <0>      -0.1200
6 C6       -3.8142     1.6877     0.0293 C.3    1 <0>      -0.0100
7 N7       -4.9177     0.7180     0.0293 N.4    1 <0>      -0.3800
8 H8       -4.8130     0.0909    -0.7542 H      1 <0>       0.4200
9 C9       -6.1948     1.4324    -0.0850 C.3    1 <0>       0.0000
10 C10      -7.3424     0.4235    -0.1671 C.3    1 <0>      -0.1400
11 C11      -7.3491    -0.4379     1.0991 C.3    1 <0>       0.0800
12 O12      -8.3717    -1.4307     0.9962 O.3    1 <0>      -0.3400
13 C13      -8.9317    -1.8206     2.2517 C.3    1 <0>       0.1900
14 H14      -8.1778    -1.7205     3.0326 H      1 <0>       0.0900
15 C15      -9.3877    -3.2549     2.1747 C.ar   1 <0>      -0.0900
16 C16      -9.9081    -3.7520     0.9944 C.ar   1 <0>      -0.0600
17 C17     -10.3265    -5.0673     0.9231 C.ar   1 <0>      -0.1200
18 C18     -10.2244    -5.8865     2.0333 C.ar   1 <0>      -0.0300
19 Cl19    -10.7492    -7.5389     1.9444 Cl     1 <0>      -0.0600
20 C20      -9.7035    -5.3885     3.2143 C.ar   1 <0>      -0.1100
21 C21      -9.2802    -4.0745     3.2827 C.ar   1 <0>      -0.1000
22 C22     -10.1085    -0.9359     2.5733 C.ar   1 <0>       0.1000
23 C23     -10.0476    -0.0873     3.6622 C.ar   1 <0>      -0.1700
24 C24     -11.1357     0.7230     3.9492 C.ar   1 <0>      -0.0700
25 C25     -12.2489     0.6487     3.1262 C.ar   1 <0>      -0.1600
26 C26     -12.2373    -0.2244     2.0547 C.ar   1 <0>       0.1000
27 N27     -11.1825    -0.9765     1.8090 N.ar   1 <0>      -0.4500
28 C28      -5.9861    -1.1200     1.2477 C.3    1 <0>      -0.1700
29 C29      -4.8899    -0.0527     1.2781 C.3    1 <0>      -0.0100
30 H30      -1.3917     2.5717     0.9126 H      1 <0>       0.0700
31 H31      -1.4001     2.5813    -0.8673 H      1 <0>       0.0700
32 H32      -2.4169     0.3198    -0.8748 H      1 <0>       0.0800
33 H33      -2.4085     0.3101     0.9052 H      1 <0>       0.0800
34 H34      -3.8762     2.3086     0.9230 H      1 <0>       0.1200
35 H35      -3.8847     2.3183    -0.8569 H      1 <0>       0.1300
36 H36      -6.3336     2.0696     0.7884 H      1 <0>       0.1300
37 H37      -6.1873     2.0474    -0.9849 H      1 <0>       0.1300
38 H38      -8.2899     0.9559    -0.2501 H      1 <0>       0.1100
39 H39      -7.2047    -0.2141    -1.0404 H      1 <0>       0.1000
40 H40      -7.5392     0.1925     1.9677 H      1 <0>       0.0800
41 H41      -9.9881    -3.1123     0.1279 H      1 <0>       0.1400
42 H42     -10.7334    -5.4555     0.0011 H      1 <0>       0.1400
43 H43      -9.6239    -6.0274     4.0814 H      1 <0>       0.1400
44 H44      -8.8733    -3.6857     4.2045 H      1 <0>       0.1300
45 H45      -9.1638    -0.0559     4.2821 H      1 <0>       0.1300
46 H46     -11.1166     1.3956     4.7939 H      1 <0>       0.1400
47 H47     -13.1144     1.2649     3.3202 H      1 <0>       0.1400
48 H48     -13.1007    -0.2884     1.4090 H      1 <0>       0.1600
49 H49      -5.9641    -1.6909     2.1760 H      1 <0>       0.1100
50 H50      -5.8203    -1.7897     0.4038 H      1 <0>       0.1000
51 H51      -3.9176    -0.5340     1.3841 H      1 <0>       0.1400
52 H52      -5.0574     0.6156     2.1228 H      1 <0>       0.1300
@<TRIPOS>BOND
1    1    2 ar
2    2    3 ar
3    2    4 1
4    4    5 1
5    4   30 1
6    4   31 1
7    5    6 1
8    5   32 1
9    5   33 1
10    6    7 1
11    6   34 1
12    6   35 1
13    7    8 1
14    7   29 1
15    7    9 1
16    9   10 1
17    9   36 1
18    9   37 1
19   10   11 1
20   10   38 1
21   10   39 1
22   11   12 1
23   11   28 1
24   11   40 1
25   12   13 1
26   13   14 1
27   13   15 1
28   13   22 1
29   15   21 ar
30   15   16 ar
31   16   17 ar
32   16   41 1
33   17   18 ar
34   17   42 1
35   18   19 1
36   18   20 ar
37   20   21 ar
38   20   43 1
39   21   44 1
40   22   27 ar
41   22   23 ar
42   23   24 ar
43   23   45 1
44   24   25 ar
45   24   46 1
46   25   26 ar
47   25   47 1
48   26   27 ar
49   26   48 1
50   28   29 1
51   28   49 1
52   28   50 1
53   29   51 1
54   29   52 1
