@<TRIPOS>MOLECULE
ZINC000019632618
69    73    1     0     0
SMALL
USER_CHARGES
@<TRIPOS>ATOM
1      C1     -0.0158    1.9612    0.4134 C.3      1 ZINC000019632618   -0.1200
2      C2      0.0469    0.5348   -0.0688 C.ar     1 ZINC000019632618   -0.1300
3      C3     -0.5415    0.1857   -1.2688 C.ar     1 ZINC000019632618   -0.0800
4      C4     -0.4866   -1.1212   -1.7143 C.ar     1 ZINC000019632618   -0.1400
5      C5      0.1608   -2.0886   -0.9560 C.ar     1 ZINC000019632618    0.1500
6      N6      0.2159   -3.4110   -1.4076 N.am     1 ZINC000019632618   -0.6600
7      C7      0.1769   -3.6740   -2.7289 C.2      1 ZINC000019632618    0.5500
8      O8      0.1899   -2.7608   -3.5311 O.2      1 ZINC000019632618   -0.5000
9      C9      0.1184   -5.0730   -3.2025 C.ar     1 ZINC000019632618   -0.0900
10     C10     0.0975   -6.1238   -2.2839 C.ar     1 ZINC000019632618   -0.0800
11     C11     0.0424   -7.4272   -2.7326 C.ar     1 ZINC000019632618   -0.1000
12     C12     0.0078   -7.6939   -4.0898 C.ar     1 ZINC000019632618   -0.1400
13     C13    -0.0523   -9.1202   -4.5727 C.3      1 ZINC000019632618    0.0400
14     N14    -1.4558   -9.5339   -4.7041 N.4      1 ZINC000019632618   -0.3900
15     H15    -1.9335   -9.3852   -3.8279 H        1 ZINC000019632618    0.4200
16     C16    -1.5150  -10.9582   -5.0581 C.3      1 ZINC000019632618    0.0000
17     C17    -2.9770  -11.3942   -5.1766 C.3      1 ZINC000019632618    0.0200
18     N18    -3.6438  -10.5872   -6.2083 N.3      1 ZINC000019632618   -0.5400
19     C19    -5.0371  -11.0147   -6.3921 C.3      1 ZINC000019632618    0.0200
20     C20    -3.5708   -9.1565   -5.8799 C.3      1 ZINC000019632618    0.0300
21     C21    -2.1037   -8.7392   -5.7557 C.3      1 ZINC000019632618   -0.0100
22     C22     0.0278   -6.6570   -5.0057 C.ar     1 ZINC000019632618   -0.1000
23     C23     0.0779   -5.3489   -4.5703 C.ar     1 ZINC000019632618   -0.0500
24     C24     0.7534   -1.7411    0.2499 C.ar     1 ZINC000019632618   -0.1500
25     C25     0.7014   -0.4269    0.6916 C.ar     1 ZINC000019632618    0.1900
26     N26     1.2971   -0.0726    1.9059 N.pl3    1 ZINC000019632618   -0.6300
27     C27     1.4733   -1.0263    2.8952 C.ar     1 ZINC000019632618    0.5700
28     N28     0.9595   -2.2358    2.7248 N.ar     1 ZINC000019632618   -0.5600
29     C29     1.1065   -3.1745    3.6464 C.ar     1 ZINC000019632618    0.1900
30     C30     1.8078   -2.8836    4.8028 C.ar     1 ZINC000019632618   -0.2700
31     C31     2.3381   -1.5995    4.9546 C.ar     1 ZINC000019632618    0.2700
32     C32     3.0982   -1.2383    6.1759 C.ar     1 ZINC000019632618   -0.1200
33     C33     3.5344    0.0740    6.3788 C.ar     1 ZINC000019632618   -0.0300
34     C34     4.2401    0.3598    7.5351 C.ar     1 ZINC000019632618   -0.1800
35     C35     4.4886   -0.6525    8.4436 C.ar     1 ZINC000019632618    0.1200
36     N36     4.0641   -1.8823    8.2248 N.ar     1 ZINC000019632618   -0.4800
37     C37     3.3842   -2.2007    7.1426 C.ar     1 ZINC000019632618    0.1300
38     N38     2.1553   -0.7074    3.9841 N.ar     1 ZINC000019632618   -0.5600
39     H39     0.8460    2.5109    0.0349 H        1 ZINC000019632618    0.0700
40     H40    -0.9319    2.4274    0.0507 H        1 ZINC000019632618    0.0700
41     H41    -0.0069    1.9770    1.5032 H        1 ZINC000019632618    0.0600
42     H42    -1.0457    0.9357   -1.8600 H        1 ZINC000019632618    0.1300
43     H43    -0.9479   -1.3910   -2.6528 H        1 ZINC000019632618    0.1400
44     H44     0.2821   -4.1389   -0.7699 H        1 ZINC000019632618    0.4100
45     H45     0.1249   -5.9170   -1.2242 H        1 ZINC000019632618    0.1400
46     H46     0.0266   -8.2411   -2.0229 H        1 ZINC000019632618    0.1400
47     H47     0.4413   -9.1970   -5.5414 H        1 ZINC000019632618    0.1400
48     H48     0.4518   -9.7681   -3.8556 H        1 ZINC000019632618    0.1400
49     H49    -1.0101  -11.1170   -6.0110 H        1 ZINC000019632618    0.1400
50     H50    -1.0223  -11.5459   -4.2835 H        1 ZINC000019632618    0.1400
51     H51    -3.0211  -12.4474   -5.4539 H        1 ZINC000019632618    0.1200
52     H52    -3.4787  -11.2483   -4.2201 H        1 ZINC000019632618    0.0600
53     H53    -5.5794  -10.8995   -5.4536 H        1 ZINC000019632618    0.0400
54     H54    -5.5070  -10.4012   -7.1609 H        1 ZINC000019632618    0.0800
55     H55    -5.0589  -12.0606   -6.6983 H        1 ZINC000019632618    0.0800
56     H56    -4.0481   -8.5771   -6.6702 H        1 ZINC000019632618    0.1200
57     H57    -4.0823   -8.9737   -4.9348 H        1 ZINC000019632618    0.0600
58     H58    -2.0474   -7.6815   -5.4982 H        1 ZINC000019632618    0.1400
59     H59    -1.5960   -8.9094   -6.7051 H        1 ZINC000019632618    0.1400
60     H60     0.0006   -6.8721   -6.0637 H        1 ZINC000019632618    0.1400
61     H61     0.0931   -4.5405   -5.2862 H        1 ZINC000019632618    0.1500
62     H62     1.2570   -2.4914    0.8414 H        1 ZINC000019632618    0.1500
63     H63     1.5869    0.8409    2.0556 H        1 ZINC000019632618    0.4300
64     H64     0.6833   -4.1569    3.4972 H        1 ZINC000019632618    0.1700
65     H65     1.9419   -3.6312    5.5706 H        1 ZINC000019632618    0.1500
66     H66     3.3265    0.8453    5.6520 H        1 ZINC000019632618    0.1500
67     H67     4.5931    1.3626    7.7253 H        1 ZINC000019632618    0.1400
68     H68     5.0392   -0.4331    9.3465 H        1 ZINC000019632618    0.1600
69     H69     3.0534   -3.2187    6.9986 H        1 ZINC000019632618    0.1600
@<TRIPOS>BOND
1     1     2     1
2     1     39    1
3     1     40    1
4     1     41    1
5     2     25    ar
6     2     3     ar
7     3     4     ar
8     3     42    1
9     4     5     ar
10    4     43    1
11    5     6     1
12    5     24    ar
13    6     7     am
14    6     44    1
15    7     8     2
16    7     9     1
17    9     23    ar
18    9     10    ar
19    10    11    ar
20    10    45    1
21    11    12    ar
22    11    46    1
23    12    13    1
24    12    22    ar
25    13    14    1
26    13    47    1
27    13    48    1
28    14    15    1
29    14    21    1
30    14    16    1
31    16    17    1
32    16    49    1
33    16    50    1
34    17    18    1
35    17    51    1
36    17    52    1
37    18    19    1
38    18    20    1
39    19    53    1
40    19    54    1
41    19    55    1
42    20    21    1
43    20    56    1
44    20    57    1
45    21    58    1
46    21    59    1
47    22    23    ar
48    22    60    1
49    23    61    1
50    24    25    ar
51    24    62    1
52    25    26    1
53    26    27    1
54    26    63    1
55    27    38    ar
56    27    28    ar
57    28    29    ar
58    29    30    ar
59    29    64    1
60    30    31    ar
61    30    65    1
62    31    32    1
63    31    38    ar
64    32    37    ar
65    32    33    ar
66    33    34    ar
67    33    66    1
68    34    35    ar
69    34    67    1
70    35    36    ar
71    35    68    1
72    36    37    ar
73    37    69    1
@<TRIPOS>SUBSTRUCTURE
1   ZINC000019632618 1     RESIDUE    1   A     ZIN   1
