@<TRIPOS>MOLECULE
ZINC000000002299
37    40    1     0     0
SMALL
USER_CHARGES
@<TRIPOS>ATOM
1      C1     -0.0178    1.4648    0.0101 C.3      1 ZINC000000002299   -0.0500
2      N2      0.0021   -0.0041    0.0020 N.4      1 ZINC000000002299   -0.4000
3      H3     -0.9430   -0.3574   -0.0042 H        1 ZINC000000002299    0.4300
4      C4      0.7244   -0.4876   -1.2016 C.3      1 ZINC000000002299    0.0000
5      C5      1.9212   -1.2867   -0.6830 C.3      1 ZINC000000002299   -0.0600
6      H6      2.7511   -0.5909   -0.5597 H        1 ZINC000000002299    0.1100
7      C7      2.3897   -2.3990   -1.5326 C.ar     1 ZINC000000002299   -0.1200
8      C8      1.7230   -2.8006   -2.6721 C.ar     1 ZINC000000002299   -0.1000
9      C9      2.1954   -3.8731   -3.4073 C.ar     1 ZINC000000002299   -0.1100
10     C10     3.3330   -4.5471   -3.0034 C.ar     1 ZINC000000002299   -0.0800
11     C11     4.0129   -4.1404   -1.8701 C.ar     1 ZINC000000002299   -0.1100
12     C12     3.5505   -3.0569   -1.1433 C.ar     1 ZINC000000002299    0.1200
13     O13     4.2283   -2.5677   -0.0868 O.3      1 ZINC000000002299   -0.2800
14     C14     3.8089   -2.6128    1.1919 C.ar     1 ZINC000000002299    0.1500
15     C15     4.7382   -3.0594    2.1339 C.ar     1 ZINC000000002299   -0.1200
16     C16     4.4062   -3.1658    3.4655 C.ar     1 ZINC000000002299   -0.0700
17     C17     3.1296   -2.8254    3.8767 C.ar     1 ZINC000000002299   -0.0400
18     Cl18    2.6877   -2.9644    5.5497 Cl       1 ZINC000000002299   -0.0500
19     C19     2.2108   -2.3755    2.9546 C.ar     1 ZINC000000002299   -0.0900
20     C20     2.5358   -2.2523    1.6039 C.ar     1 ZINC000000002299   -0.1200
21     C21     1.4873   -1.7240    0.7008 C.3      1 ZINC000000002299   -0.0600
22     H22     0.7574   -2.5210    0.5585 H        1 ZINC000000002299    0.1000
23     C23     0.7155   -0.5023    1.2098 C.3      1 ZINC000000002299    0.0000
24     H24     1.0047    1.8421    0.0024 H        1 ZINC000000002299    0.1200
25     H25    -0.5450    1.8259   -0.8730 H        1 ZINC000000002299    0.1300
26     H26    -0.5280    1.8163    0.9069 H        1 ZINC000000002299    0.1300
27     H27     0.0744   -1.1288   -1.7970 H        1 ZINC000000002299    0.1400
28     H28     1.0675    0.3576   -1.7982 H        1 ZINC000000002299    0.1400
29     H29     0.8327   -2.2782   -2.9896 H        1 ZINC000000002299    0.1300
30     H30     1.6739   -4.1848   -4.3002 H        1 ZINC000000002299    0.1400
31     H31     3.6910   -5.3915   -3.5736 H        1 ZINC000000002299    0.1400
32     H32     4.9010   -4.6667   -1.5528 H        1 ZINC000000002299    0.1400
33     H33     5.7340   -3.3262    1.8121 H        1 ZINC000000002299    0.1500
34     H34     5.1354   -3.5121    4.1829 H        1 ZINC000000002299    0.1500
35     H35     1.2167   -2.1127    3.2846 H        1 ZINC000000002299    0.1400
36     H36     1.4031    0.2579    1.5806 H        1 ZINC000000002299    0.1400
37     H37     0.0084   -0.7924    1.9869 H        1 ZINC000000002299    0.1500
@<TRIPOS>BOND
1     1     2     1
2     1     24    1
3     1     25    1
4     1     26    1
5     2     3     1
6     2     23    1
7     2     4     1
8     4     5     1
9     4     27    1
10    4     28    1
11    5     6     1
12    5     21    1
13    5     7     1
14    7     12    ar
15    7     8     ar
16    8     9     ar
17    8     29    1
18    9     10    ar
19    9     30    1
20    10    11    ar
21    10    31    1
22    11    12    ar
23    11    32    1
24    12    13    1
25    13    14    1
26    14    20    ar
27    14    15    ar
28    15    16    ar
29    15    33    1
30    16    17    ar
31    16    34    1
32    17    18    1
33    17    19    ar
34    19    20    ar
35    19    35    1
36    20    21    1
37    21    22    1
38    21    23    1
39    23    36    1
40    23    37    1
@<TRIPOS>SUBSTRUCTURE
1   ZINC000000002299 1     RESIDUE    1   A     ZIN   1
