@<TRIPOS>MOLECULE
ZINC000100003902
79    83    1     0     0
SMALL
USER_CHARGES
@<TRIPOS>ATOM
1      C1      0.2694   -3.3228    1.4449 C.3      1 ZINC000100003902   -0.0700
2      C2      0.1301   -2.0715    0.6166 C.2      1 ZINC000100003902    0.1800
3      N3      0.1759   -1.9968   -0.6856 N.2      1 ZINC000100003902   -0.2800
4      N4      0.0202   -0.7749   -1.0549 N.2      1 ZINC000100003902   -0.2700
5      C5     -0.1321   -0.0146   -0.0050 C.2      1 ZINC000100003902    0.1700
6      C6     -0.3418    1.4778   -0.0057 C.3      1 ZINC000100003902    0.0000
7      C7      0.8540    2.1605   -0.6726 C.3      1 ZINC000100003902   -0.1500
8      C8     -1.6178    1.8130   -0.7805 C.3      1 ZINC000100003902   -0.1500
9      N9     -0.0717   -0.8165    1.0856 N.pl3    1 ZINC000100003902   -0.4800
10     C10    -0.1917   -0.4081    2.4874 C.3      1 ZINC000100003902    0.1300
11     H11    -0.0952   -1.2836    3.1295 H        1 ZINC000100003902    0.1300
12     C12    -1.5600    0.2412    2.7135 C.3      1 ZINC000100003902   -0.1600
13     C13    -1.6166    0.7971    4.1454 C.3      1 ZINC000100003902    0.0400
14     H14    -2.6130    1.1516    4.4091 H        1 ZINC000100003902    0.1600
15     C15    -1.1175   -0.3098    5.1025 C.3      1 ZINC000100003902   -0.1400
16     C16     0.4105   -0.1092    5.1762 C.3      1 ZINC000100003902   -0.1500
17     C17     0.6959    1.1008    4.2571 C.3      1 ZINC000100003902    0.0500
18     H18     1.5308    1.7029    4.6156 H        1 ZINC000100003902    0.1600
19     C19     0.9166    0.5941    2.8226 C.3      1 ZINC000100003902   -0.1700
20     N20    -0.5931    1.8718    4.2417 N.4      1 ZINC000100003902   -0.4000
21     H21    -0.6313    2.4841    3.4406 H        1 ZINC000100003902    0.4300
22     C22    -0.7529    2.6372    5.4853 C.3      1 ZINC000100003902   -0.0100
23     C23    -2.0081    3.5070    5.3911 C.3      1 ZINC000100003902   -0.1500
24     C24    -2.1745    4.3042    6.6864 C.3      1 ZINC000100003902    0.2000
25     H25    -1.2655    4.8727    6.8825 H        1 ZINC000100003902    0.1100
26     N26    -2.4239    3.3831    7.7980 N.am     1 ZINC000100003902   -0.7400
27     C27    -2.1116    3.7470    9.0576 C.2      1 ZINC000100003902    0.5200
28     O28    -1.6243    4.8369    9.2708 O.2      1 ZINC000100003902   -0.5100
29     C29    -2.3681    2.7995   10.2011 C.3      1 ZINC000100003902   -0.1100
30     C30    -1.5756    1.5093    9.9819 C.3      1 ZINC000100003902   -0.1100
31     C31    -1.8360    0.5473   11.1428 C.3      1 ZINC000100003902   -0.1600
32     C32    -1.3952    1.2000   12.4546 C.3      1 ZINC000100003902    0.2900
33     F33    -1.6333    0.3204   13.5161 F        1 ZINC000100003902   -0.2000
34     F34    -0.0294    1.4965   12.3920 F        1 ZINC000100003902   -0.2000
35     C35    -2.1877    2.4902   12.6738 C.3      1 ZINC000100003902   -0.1600
36     C36    -1.9273    3.4522   11.5128 C.3      1 ZINC000100003902   -0.1000
37     C37    -3.3389    5.2508    6.5475 C.ar     1 ZINC000100003902   -0.1100
38     C38    -4.6304    4.7869    6.7139 C.ar     1 ZINC000100003902   -0.1100
39     C39    -5.6984    5.6553    6.5866 C.ar     1 ZINC000100003902   -0.1200
40     C40    -5.4749    6.9875    6.2933 C.ar     1 ZINC000100003902   -0.1100
41     C41    -4.1833    7.4516    6.1278 C.ar     1 ZINC000100003902   -0.1100
42     C42    -3.1151    6.5841    6.2594 C.ar     1 ZINC000100003902   -0.1000
43     H43    -0.7199   -3.7187    1.6743 H        1 ZINC000100003902    0.0900
44     H44     0.8379   -4.0666    0.8867 H        1 ZINC000100003902    0.1000
45     H45     0.7910   -3.0881    2.3728 H        1 ZINC000100003902    0.0800
46     H46    -0.4364    1.8319    1.0208 H        1 ZINC000100003902    0.0700
47     H47     0.9486    1.8063   -1.6991 H        1 ZINC000100003902    0.0800
48     H48     0.7023    3.2399   -0.6732 H        1 ZINC000100003902    0.0700
49     H49     1.7631    1.9216   -0.1207 H        1 ZINC000100003902    0.0600
50     H50    -1.5232    1.4589   -1.8070 H        1 ZINC000100003902    0.0800
51     H51    -2.4698    1.3266   -0.3054 H        1 ZINC000100003902    0.0600
52     H52    -1.7695    2.8924   -0.7811 H        1 ZINC000100003902    0.0700
53     H53    -1.7009    1.0536    2.0006 H        1 ZINC000100003902    0.1000
54     H54    -2.3442   -0.5040    2.5800 H        1 ZINC000100003902    0.1200
55     H55    -1.5641   -0.1878    6.0892 H        1 ZINC000100003902    0.1100
56     H56    -1.3517   -1.2947    4.6983 H        1 ZINC000100003902    0.1200
57     H57     0.7152    0.1114    6.1992 H        1 ZINC000100003902    0.1100
58     H58     0.9276   -0.9953    4.8082 H        1 ZINC000100003902    0.1200
59     H59     1.8804    0.0890    2.7581 H        1 ZINC000100003902    0.1200
60     H60     0.8967    1.4362    2.1308 H        1 ZINC000100003902    0.1100
61     H61    -0.8498    1.9494    6.3253 H        1 ZINC000100003902    0.1300
62     H62     0.1195    3.2732    5.6352 H        1 ZINC000100003902    0.1400
63     H63    -1.9112    4.1948    4.5511 H        1 ZINC000100003902    0.1100
64     H64    -2.8805    2.8710    5.2412 H        1 ZINC000100003902    0.0900
65     H65    -2.8136    2.5114    7.6275 H        1 ZINC000100003902    0.4000
66     H66    -3.4322    2.5685   10.2498 H        1 ZINC000100003902    0.1100
67     H67    -1.8897    1.0443    9.0474 H        1 ZINC000100003902    0.0800
68     H68    -0.5115    1.7403    9.9331 H        1 ZINC000100003902    0.0800
69     H69    -2.9001    0.3163   11.1916 H        1 ZINC000100003902    0.1000
70     H70    -1.2714   -0.3719   10.9867 H        1 ZINC000100003902    0.0900
71     H71    -3.2518    2.2592   12.7225 H        1 ZINC000100003902    0.1000
72     H72    -1.8737    2.9552   13.6083 H        1 ZINC000100003902    0.1000
73     H73    -0.8632    3.6832   11.4641 H        1 ZINC000100003902    0.0800
74     H74    -2.4919    4.3714   11.6690 H        1 ZINC000100003902    0.0900
75     H75    -4.8050    3.7461    6.9430 H        1 ZINC000100003902    0.1200
76     H76    -6.7075    5.2927    6.7158 H        1 ZINC000100003902    0.1300
77     H77    -6.3094    7.6658    6.1931 H        1 ZINC000100003902    0.1300
78     H78    -4.0087    8.4924    5.8983 H        1 ZINC000100003902    0.1300
79     H79    -2.1060    6.9467    6.1301 H        1 ZINC000100003902    0.1200
@<TRIPOS>BOND
1     1     2     1
2     1     43    1
3     1     44    1
4     1     45    1
5     2     9     1
6     2     3     2
7     3     4     1
8     4     5     2
9     5     6     1
10    5     9     1
11    6     7     1
12    6     8     1
13    6     46    1
14    7     47    1
15    7     48    1
16    7     49    1
17    8     50    1
18    8     51    1
19    8     52    1
20    9     10    1
21    10    11    1
22    10    19    1
23    10    12    1
24    12    13    1
25    12    53    1
26    12    54    1
27    13    14    1
28    13    20    1
29    13    15    1
30    15    16    1
31    15    55    1
32    15    56    1
33    16    17    1
34    16    57    1
35    16    58    1
36    17    18    1
37    17    19    1
38    17    20    1
39    19    59    1
40    19    60    1
41    20    21    1
42    20    22    1
43    22    23    1
44    22    61    1
45    22    62    1
46    23    24    1
47    23    63    1
48    23    64    1
49    24    25    1
50    24    26    1
51    24    37    1
52    26    27    am
53    26    65    1
54    27    28    2
55    27    29    1
56    29    36    1
57    29    30    1
58    29    66    1
59    30    31    1
60    30    67    1
61    30    68    1
62    31    32    1
63    31    69    1
64    31    70    1
65    32    33    1
66    32    34    1
67    32    35    1
68    35    36    1
69    35    71    1
70    35    72    1
71    36    73    1
72    36    74    1
73    37    42    ar
74    37    38    ar
75    38    39    ar
76    38    75    1
77    39    40    ar
78    39    76    1
79    40    41    ar
80    40    77    1
81    41    42    ar
82    41    78    1
83    42    79    1
@<TRIPOS>SUBSTRUCTURE
1   ZINC000100003902 1     RESIDUE    1   A     ZIN   1
