@<TRIPOS>MOLECULE
ZINC000001530812
49    50    1     0     0
SMALL
USER_CHARGES
@<TRIPOS>ATOM
1      C1     -4.7037   -2.1407   -0.1096 C.3      1 ZINC000001530812   -0.1500
2      C2     -3.5939   -3.1817   -0.2691 C.3      1 ZINC000001530812   -0.1200
3      C3     -2.4968   -2.6226   -1.1772 C.3      1 ZINC000001530812   -0.1200
4      C4     -1.3870   -3.6637   -1.3367 C.3      1 ZINC000001530812    0.0500
5      N5     -0.3336   -3.1269   -2.2086 N.3      1 ZINC000001530812   -0.5100
6      C6     -0.8988   -2.6182   -3.4648 C.3      1 ZINC000001530812    0.0500
7      C7      0.2016   -1.9378   -4.2823 C.3      1 ZINC000001530812   -0.1200
8      C8      1.3136   -2.9493   -4.5737 C.3      1 ZINC000001530812   -0.1200
9      C9      1.8519   -3.4997   -3.2502 C.3      1 ZINC000001530812   -0.1100
10     C10     0.7036   -4.1348   -2.4627 C.3      1 ZINC000001530812    0.0700
11     H11     0.2784   -4.9562   -3.0394 H        1 ZINC000001530812    0.0600
12     C12     1.2252   -4.6602   -1.1500 C.2      1 ZINC000001530812    0.5200
13     O13     1.2105   -3.9529   -0.1649 O.2      1 ZINC000001530812   -0.4900
14     N14     1.7080   -5.9160   -1.0708 N.am     1 ZINC000001530812   -0.6800
15     C15     2.0848   -6.4438    0.1691 C.ar     1 ZINC000001530812    0.1300
16     C16     3.0333   -5.7898    0.9444 C.ar     1 ZINC000001530812   -0.0700
17     C17     3.6580   -4.5099    0.4517 C.3      1 ZINC000001530812   -0.1100
18     C18     3.4032   -6.3133    2.1678 C.ar     1 ZINC000001530812   -0.1200
19     C19     2.8304   -7.4877    2.6206 C.ar     1 ZINC000001530812   -0.1100
20     C20     1.8860   -8.1416    1.8507 C.ar     1 ZINC000001530812   -0.1200
21     C21     1.5070   -7.6197    0.6294 C.ar     1 ZINC000001530812   -0.0900
22     C22     0.4777   -8.3329   -0.2090 C.3      1 ZINC000001530812   -0.1100
23     H23    -4.2910   -1.2348    0.3345 H        1 ZINC000001530812    0.0600
24     H24    -5.1254   -1.9065   -1.0871 H        1 ZINC000001530812    0.0500
25     H25    -5.4853   -2.5390    0.5373 H        1 ZINC000001530812    0.0500
26     H26    -3.1722   -3.4159    0.7084 H        1 ZINC000001530812    0.0600
27     H27    -4.0065   -4.0876   -0.7132 H        1 ZINC000001530812    0.0600
28     H28    -2.9185   -2.3884   -2.1547 H        1 ZINC000001530812    0.0600
29     H29    -2.0841   -1.7168   -0.7331 H        1 ZINC000001530812    0.0700
30     H30    -0.9653   -3.8979   -0.3592 H        1 ZINC000001530812    0.0900
31     H31    -1.7996   -4.5695   -1.7808 H        1 ZINC000001530812    0.0300
32     H32    -1.3166   -3.4467   -4.0369 H        1 ZINC000001530812    0.0300
33     H33    -1.6854   -1.8968   -3.2434 H        1 ZINC000001530812    0.0900
34     H34    -0.2149   -1.5741   -5.2216 H        1 ZINC000001530812    0.0700
35     H35     0.6104   -1.1006   -3.7164 H        1 ZINC000001530812    0.0700
36     H36     0.9138   -3.7676   -5.1728 H        1 ZINC000001530812    0.0600
37     H37     2.1196   -2.4578   -5.1185 H        1 ZINC000001530812    0.0700
38     H38     2.6145   -4.2519   -3.4521 H        1 ZINC000001530812    0.0700
39     H39     2.2867   -2.6871   -2.6681 H        1 ZINC000001530812    0.0800
40     H40     1.7942   -6.4540   -1.8734 H        1 ZINC000001530812    0.4100
41     H41     3.1329   -3.6589    0.8854 H        1 ZINC000001530812    0.0900
42     H42     4.7064   -4.4796    0.7485 H        1 ZINC000001530812    0.0600
43     H43     3.5866   -4.4656   -0.6350 H        1 ZINC000001530812    0.0600
44     H44     4.1408   -5.8052    2.7713 H        1 ZINC000001530812    0.1300
45     H45     3.1216   -7.8953    3.5774 H        1 ZINC000001530812    0.1200
46     H46     1.4410   -9.0589    2.2068 H        1 ZINC000001530812    0.1300
47     H47    -0.5168   -7.9692    0.0494 H        1 ZINC000001530812    0.0700
48     H48     0.6721   -8.1407   -1.2642 H        1 ZINC000001530812    0.0600
49     H49     0.5334   -9.4047   -0.0187 H        1 ZINC000001530812    0.0700
@<TRIPOS>BOND
1     1     2     1
2     1     23    1
3     1     24    1
4     1     25    1
5     2     3     1
6     2     26    1
7     2     27    1
8     3     4     1
9     3     28    1
10    3     29    1
11    4     5     1
12    4     30    1
13    4     31    1
14    5     10    1
15    5     6     1
16    6     7     1
17    6     32    1
18    6     33    1
19    7     8     1
20    7     34    1
21    7     35    1
22    8     9     1
23    8     36    1
24    8     37    1
25    9     10    1
26    9     38    1
27    9     39    1
28    10    11    1
29    10    12    1
30    12    13    2
31    12    14    am
32    14    15    1
33    14    40    1
34    15    21    ar
35    15    16    ar
36    16    17    1
37    16    18    ar
38    17    41    1
39    17    42    1
40    17    43    1
41    18    19    ar
42    18    44    1
43    19    20    ar
44    19    45    1
45    20    21    ar
46    20    46    1
47    21    22    1
48    22    47    1
49    22    48    1
50    22    49    1
@<TRIPOS>SUBSTRUCTURE
1   ZINC000001530812 1     RESIDUE    1   A     ZIN   1
