@<TRIPOS>MOLECULE
ZINC000031274852
49    51    1     0     0
SMALL
USER_CHARGES
@<TRIPOS>ATOM
1      C1      0.3719    1.4880   -0.0355 C.3      1 ZINC000031274852   -0.1100
2      C2      0.3038   -0.0172   -0.0598 C.ar     1 ZINC000031274852   -0.0900
3      C3      0.4369   -0.6937   -1.2591 C.ar     1 ZINC000031274852   -0.1200
4      C4      0.3754   -2.0720   -1.2874 C.ar     1 ZINC000031274852   -0.0900
5      C5      0.1792   -2.7827   -0.1044 C.ar     1 ZINC000031274852   -0.0400
6      C6      0.1127   -4.2640   -0.1283 C.2      1 ZINC000031274852   -0.0500
7      C7      1.0553   -4.9863    0.4891 C.2      1 ZINC000031274852   -0.0800
8      C8      0.9104   -6.4827    0.5934 C.3      1 ZINC000031274852    0.0700
9      N9      2.0933   -7.1310    0.0118 N.3      1 ZINC000031274852   -0.5000
10     C10     3.2770   -6.9692    0.8943 C.3      1 ZINC000031274852    0.0300
11     C11     4.2243   -8.1031    0.4283 C.3      1 ZINC000031274852   -0.1200
12     C12     3.2498   -9.2631    0.1203 C.3      1 ZINC000031274852   -0.1300
13     C13     1.8864   -8.5893   -0.1221 C.3      1 ZINC000031274852    0.0400
14     C14    -0.9979   -4.9448   -0.8361 C.ar     1 ZINC000031274852    0.1700
15     C15    -2.3190   -4.6713   -0.4736 C.ar     1 ZINC000031274852   -0.1800
16     C16    -3.3510   -5.3110   -1.1391 C.ar     1 ZINC000031274852   -0.0800
17     C17    -3.0357   -6.2065   -2.1486 C.ar     1 ZINC000031274852   -0.1700
18     C18    -1.6936   -6.4359   -2.4630 C.ar     1 ZINC000031274852    0.1800
19     C19    -1.3472   -7.3856   -3.5349 C.2      1 ZINC000031274852   -0.1500
20     C20    -0.0533   -7.6118   -3.8437 C.2      1 ZINC000031274852   -0.1100
21     C21     0.2904   -8.5540   -4.9071 C.2      1 ZINC000031274852    0.5000
22     O22    -0.5959   -9.1380   -5.5178 O.co2    1 ZINC000031274852   -0.6900
23     O23     1.4647   -8.7593   -5.1873 O.co2    1 ZINC000031274852   -0.6900
24     N24    -0.7273   -5.8013   -1.8084 N.ar     1 ZINC000031274852   -0.4600
25     C25     0.0463   -2.0958    1.1011 C.ar     1 ZINC000031274852   -0.1000
26     C26     0.1142   -0.7175    1.1180 C.ar     1 ZINC000031274852   -0.1200
27     H27     1.4060    1.8027    0.1055 H        1 ZINC000031274852    0.0700
28     H28    -0.0029    1.8840   -0.9793 H        1 ZINC000031274852    0.0700
29     H29    -0.2380    1.8661    0.7850 H        1 ZINC000031274852    0.0600
30     H30     0.5888   -0.1420   -2.1751 H        1 ZINC000031274852    0.1200
31     H31     0.4786   -2.5991   -2.2244 H        1 ZINC000031274852    0.1200
32     H32     1.9199   -4.4967    0.9126 H        1 ZINC000031274852    0.1200
33     H33     0.8190   -6.7667    1.6418 H        1 ZINC000031274852    0.0400
34     H34     0.0191   -6.8000    0.0521 H        1 ZINC000031274852    0.0900
35     H35     3.7399   -5.9942    0.7421 H        1 ZINC000031274852    0.0800
36     H36     2.9990   -7.1053    1.9395 H        1 ZINC000031274852    0.0400
37     H37     4.7677   -7.8073   -0.4691 H        1 ZINC000031274852    0.0800
38     H38     4.9148   -8.3806    1.2247 H        1 ZINC000031274852    0.0700
39     H39     3.5706   -9.7998   -0.7725 H        1 ZINC000031274852    0.0800
40     H40     3.1901   -9.9428    0.9703 H        1 ZINC000031274852    0.0600
41     H41     1.1658   -8.9318    0.6205 H        1 ZINC000031274852    0.0400
42     H42     1.5297   -8.8233   -1.1251 H        1 ZINC000031274852    0.0900
43     H43    -2.5331   -3.9684    0.3179 H        1 ZINC000031274852    0.1300
44     H44    -4.3804   -5.1164   -0.8767 H        1 ZINC000031274852    0.1300
45     H45    -3.8182   -6.7215   -2.6860 H        1 ZINC000031274852    0.1300
46     H46    -2.1289   -7.9006   -4.0735 H        1 ZINC000031274852    0.1300
47     H47     0.7284   -7.0968   -3.3051 H        1 ZINC000031274852    0.1200
48     H48    -0.1059   -2.6413    2.0207 H        1 ZINC000031274852    0.1200
49     H49     0.0114   -0.1842    2.0515 H        1 ZINC000031274852    0.1200
@<TRIPOS>BOND
1     1     2     1
2     1     27    1
3     1     28    1
4     1     29    1
5     2     26    ar
6     2     3     ar
7     3     4     ar
8     3     30    1
9     4     5     ar
10    4     31    1
11    5     6     1
12    5     25    ar
13    6     7     2
14    6     14    1
15    7     8     1
16    7     32    1
17    8     9     1
18    8     33    1
19    8     34    1
20    9     13    1
21    9     10    1
22    10    11    1
23    10    35    1
24    10    36    1
25    11    12    1
26    11    37    1
27    11    38    1
28    12    13    1
29    12    39    1
30    12    40    1
31    13    41    1
32    13    42    1
33    14    24    ar
34    14    15    ar
35    15    16    ar
36    15    43    1
37    16    17    ar
38    16    44    1
39    17    18    ar
40    17    45    1
41    18    19    1
42    18    24    ar
43    19    20    2
44    19    46    1
45    20    21    1
46    20    47    1
47    21    22    ar
48    21    23    ar
49    25    26    ar
50    25    48    1
51    26    49    1
@<TRIPOS>SUBSTRUCTURE
1   ZINC000031274852 1     RESIDUE    1   A     ZIN   1
