@<TRIPOS>MOLECULE
ZINC000001530947
29    31    1     0     0
SMALL
USER_CHARGES
@<TRIPOS>ATOM
1      O1      0.0021   -0.0041    0.0020 O.2      1 ZINC000001530947   -0.4500
2      C2     -0.0144    1.2103    0.0087 C.2      1 ZINC000001530947    0.5800
3      C3     -1.2261    2.0566    0.0312 C.ar     1 ZINC000001530947   -0.1400
4      C4     -2.5868    1.7976    0.0498 C.ar     1 ZINC000001530947   -0.0400
5      C5     -3.4870    2.8521    0.0684 C.ar     1 ZINC000001530947   -0.0900
6      C6     -3.0359    4.1582    0.0681 C.ar     1 ZINC000001530947   -0.0900
7      C7     -1.6769    4.4326    0.0492 C.ar     1 ZINC000001530947   -0.0400
8      C8     -0.7658    3.3891    0.0314 C.ar     1 ZINC000001530947   -0.1400
9      C9      0.7099    3.3072    0.0089 C.2      1 ZINC000001530947    0.5800
10     O10     1.4723    4.2525    0.0018 O.2      1 ZINC000001530947   -0.4600
11     N11     1.0671    2.0102    0.0027 N.am     1 ZINC000001530947   -0.5600
12     C12     2.4517    1.5320   -0.0188 C.3      1 ZINC000001530947    0.1200
13     H13     3.1313    2.3842   -0.0287 H        1 ZINC000001530947    0.1500
14     C14     2.7182    0.6789    1.2261 C.3      1 ZINC000001530947   -0.1400
15     C15     4.1330    0.0988    1.1263 C.3      1 ZINC000001530947   -0.1400
16     C16     4.2655   -0.6615   -0.1668 C.2      1 ZINC000001530947    0.5200
17     O17     5.0328   -1.5979   -0.2297 O.2      1 ZINC000001530947   -0.4900
18     N18     3.5507   -0.3229   -1.2502 N.am     1 ZINC000001530947   -0.6700
19     C19     2.6760    0.6951   -1.2504 C.2      1 ZINC000001530947    0.5200
20     O20     2.0534    0.9436   -2.2605 O.2      1 ZINC000001530947   -0.4800
21     H21    -2.9450    0.7788    0.0494 H        1 ZINC000001530947    0.1400
22     H22    -4.5480    2.6512    0.0828 H        1 ZINC000001530947    0.1500
23     H23    -3.7468    4.9711    0.0823 H        1 ZINC000001530947    0.1500
24     H24    -1.3300    5.4554    0.0484 H        1 ZINC000001530947    0.1500
25     H25     2.6390    1.2993    2.1188 H        1 ZINC000001530947    0.1100
26     H26     1.9924   -0.1328    1.2757 H        1 ZINC000001530947    0.1000
27     H27     4.8615    0.9094    1.1486 H        1 ZINC000001530947    0.1200
28     H28     4.3105   -0.5748    1.9647 H        1 ZINC000001530947    0.1300
29     H29     3.6713   -0.8333   -2.0661 H        1 ZINC000001530947    0.4200
@<TRIPOS>BOND
1     1     2     2
2     2     11    am
3     2     3     1
4     3     8     ar
5     3     4     ar
6     4     5     ar
7     4     21    1
8     5     6     ar
9     5     22    1
10    6     7     ar
11    6     23    1
12    7     8     ar
13    7     24    1
14    8     9     1
15    9     10    2
16    9     11    am
17    11    12    1
18    12    13    1
19    12    19    1
20    12    14    1
21    14    15    1
22    14    25    1
23    14    26    1
24    15    16    1
25    15    27    1
26    15    28    1
27    16    17    2
28    16    18    am
29    18    19    am
30    18    29    1
31    19    20    2
@<TRIPOS>SUBSTRUCTURE
1   ZINC000001530947 1     RESIDUE    1   A     ZIN   1
