@<TRIPOS>MOLECULE
ZINC000084400879
64    66    1     0     0
SMALL
USER_CHARGES
@<TRIPOS>ATOM
1      C1      2.1191    1.3906   -0.6374 C.3      1 ZINC000084400879    0.0300
2      O2      2.0997   -0.0323   -0.7677 O.3      1 ZINC000084400879   -0.3500
3      C3      0.8935   -0.6167   -0.9254 C.2      1 ZINC000084400879    0.5300
4      O4     -0.1141    0.0650   -0.9514 O.2      1 ZINC000084400879   -0.4900
5      C5      0.8006   -2.0213   -1.0604 C.2      1 ZINC000084400879   -0.2300
6      C6      1.1717   -2.5967   -2.2173 C.2      1 ZINC000084400879    0.1900
7      C7      1.6865   -1.7384   -3.3439 C.3      1 ZINC000084400879   -0.1300
8      N8      1.0881   -3.9521   -2.3842 N.pl3    1 ZINC000084400879   -0.6300
9      C9      0.3086   -4.7038   -1.5478 C.2      1 ZINC000084400879    0.2400
10     C10    -0.0980   -6.0952   -1.9596 C.3      1 ZINC000084400879   -0.1200
11     C11    -0.0985   -4.2165   -0.3630 C.2      1 ZINC000084400879   -0.2600
12     C12    -0.9094   -5.0185    0.4731 C.2      1 ZINC000084400879    0.5200
13     O13    -1.2312   -6.1368    0.1173 O.2      1 ZINC000084400879   -0.5200
14     O14    -1.3262   -4.5436    1.6655 O.3      1 ZINC000084400879   -0.3300
15     C15    -2.1426   -5.4078    2.4585 C.3      1 ZINC000084400879    0.0700
16     C16    -2.5142   -4.7021    3.7642 C.3      1 ZINC000084400879    0.0500
17     N17    -3.3566   -3.5357    3.4678 N.3      1 ZINC000084400879   -0.5300
18     C18    -4.6524   -3.9494    2.9131 C.3      1 ZINC000084400879    0.0200
19     C19    -3.5379   -2.7001    4.6623 C.3      1 ZINC000084400879    0.0900
20     C20    -4.1920   -1.4000    4.2713 C.ar     1 ZINC000084400879   -0.0800
21     C21    -3.4141   -0.3165    3.9082 C.ar     1 ZINC000084400879   -0.0900
22     C22    -4.0142    0.8760    3.5496 C.ar     1 ZINC000084400879   -0.1200
23     C23    -5.3922    0.9850    3.5536 C.ar     1 ZINC000084400879   -0.1200
24     C24    -6.1702   -0.0987    3.9158 C.ar     1 ZINC000084400879   -0.1200
25     C25    -5.5702   -1.2926    4.2703 C.ar     1 ZINC000084400879   -0.1200
26     C26     0.2952   -2.8388    0.0943 C.3      1 ZINC000084400879    0.0900
27     H27    -0.5737   -2.3420    0.5259 H        1 ZINC000084400879    0.1000
28     C28     1.3726   -2.9527    1.1417 C.ar     1 ZINC000084400879   -0.0700
29     C29     2.5763   -3.5572    0.8321 C.ar     1 ZINC000084400879   -0.0500
30     C30     3.5648   -3.6617    1.7930 C.ar     1 ZINC000084400879   -0.1200
31     C31     3.3495   -3.1611    3.0632 C.ar     1 ZINC000084400879   -0.0600
32     C32     2.1458   -2.5555    3.3727 C.ar     1 ZINC000084400879   -0.0400
33     N33     1.9150   -2.0199    4.7332 N.pl3    1 ZINC000084400879    0.0300
34     O34     2.7855   -2.1127    5.5800 O.2      1 ZINC000084400879   -0.1600
35     O35     0.8545   -1.4864    5.0058 O.2      1 ZINC000084400879   -0.1600
36     C36     1.1592   -2.4473    2.4108 C.ar     1 ZINC000084400879   -0.0300
37     H37     1.6889    1.8432   -1.5309 H        1 ZINC000084400879    0.0600
38     H38     1.5353    1.6836    0.2352 H        1 ZINC000084400879    0.0600
39     H39     3.1477    1.7305   -0.5173 H        1 ZINC000084400879    0.1000
40     H40     2.7612   -1.5963   -3.2305 H        1 ZINC000084400879    0.1000
41     H41     1.4832   -2.2284   -4.2961 H        1 ZINC000084400879    0.0900
42     H42     1.1874   -0.7697   -3.3200 H        1 ZINC000084400879    0.0900
43     H43     1.5833   -4.3820   -3.0989 H        1 ZINC000084400879    0.4200
44     H44     0.3198   -6.3203   -2.9409 H        1 ZINC000084400879    0.0600
45     H45     0.2775   -6.8140   -1.2313 H        1 ZINC000084400879    0.1000
46     H46    -1.1852   -6.1577   -2.0046 H        1 ZINC000084400879    0.1100
47     H47    -3.0504   -5.6558    1.9084 H        1 ZINC000084400879    0.0700
48     H48    -1.5928   -6.3218    2.6832 H        1 ZINC000084400879    0.0700
49     H49    -3.0615   -5.3916    4.4069 H        1 ZINC000084400879    0.0600
50     H50    -1.6065   -4.3753    4.2716 H        1 ZINC000084400879    0.0900
51     H51    -5.1712   -4.5811    3.6342 H        1 ZINC000084400879    0.0300
52     H52    -5.2561   -3.0666    2.7028 H        1 ZINC000084400879    0.0800
53     H53    -4.4913   -4.5076    1.9908 H        1 ZINC000084400879    0.0700
54     H54    -4.1700   -3.2237    5.3794 H        1 ZINC000084400879    0.0400
55     H55    -2.5670   -2.4968    5.1143 H        1 ZINC000084400879    0.0900
56     H56    -2.3375   -0.4017    3.9051 H        1 ZINC000084400879    0.1300
57     H57    -3.4063    1.7227    3.2666 H        1 ZINC000084400879    0.1200
58     H58    -5.8610    1.9169    3.2741 H        1 ZINC000084400879    0.1200
59     H59    -7.2468   -0.0135    3.9193 H        1 ZINC000084400879    0.1200
60     H60    -6.1780   -2.1393    4.5533 H        1 ZINC000084400879    0.1200
61     H61     2.7446   -3.9484   -0.1604 H        1 ZINC000084400879    0.1300
62     H62     4.5051   -4.1348    1.5513 H        1 ZINC000084400879    0.1500
63     H63     4.1214   -3.2434    3.8141 H        1 ZINC000084400879    0.1500
64     H64     0.2189   -1.9742    2.6526 H        1 ZINC000084400879    0.1500
@<TRIPOS>BOND
1     1     2     1
2     1     37    1
3     1     38    1
4     1     39    1
5     2     3     1
6     3     4     2
7     3     5     1
8     5     26    1
9     5     6     2
10    6     7     1
11    6     8     1
12    7     40    1
13    7     41    1
14    7     42    1
15    8     9     1
16    8     43    1
17    9     10    1
18    9     11    2
19    10    44    1
20    10    45    1
21    10    46    1
22    11    12    1
23    11    26    1
24    12    13    2
25    12    14    1
26    14    15    1
27    15    16    1
28    15    47    1
29    15    48    1
30    16    17    1
31    16    49    1
32    16    50    1
33    17    18    1
34    17    19    1
35    18    51    1
36    18    52    1
37    18    53    1
38    19    20    1
39    19    54    1
40    19    55    1
41    20    25    ar
42    20    21    ar
43    21    22    ar
44    21    56    1
45    22    23    ar
46    22    57    1
47    23    24    ar
48    23    58    1
49    24    25    ar
50    24    59    1
51    25    60    1
52    26    27    1
53    26    28    1
54    28    36    ar
55    28    29    ar
56    29    30    ar
57    29    61    1
58    30    31    ar
59    30    62    1
60    31    32    ar
61    31    63    1
62    32    33    1
63    32    36    ar
64    33    34    2
65    33    35    2
66    36    64    1
@<TRIPOS>SUBSTRUCTURE
1   ZINC000084400879 1     RESIDUE    1   A     ZIN   1
