@<TRIPOS>MOLECULE
ZINC000000155531
46    47    1     0     0
SMALL
USER_CHARGES
@<TRIPOS>ATOM
1      C1     -0.0448    1.4839    0.0042 C.3      1 ZINC000000155531    0.0200
2      N2     -0.0402    0.0150    0.0048 N.3      1 ZINC000000155531   -0.5400
3      C3      0.6451   -0.5089    1.1939 C.3      1 ZINC000000155531    0.0200
4      C4     -1.4065   -0.5159   -0.0921 C.3      1 ZINC000000155531    0.0500
5      C5     -1.9987   -0.1543   -1.4557 C.3      1 ZINC000000155531    0.0700
6      O6     -1.2501   -0.8271   -2.5023 O.3      1 ZINC000000155531   -0.3400
7      C7     -1.6449   -0.6137   -3.7673 C.2      1 ZINC000000155531    0.4700
8      O8     -2.5848    0.1113   -3.9927 O.2      1 ZINC000000155531   -0.5000
9      C9     -0.9158   -1.2784   -4.9065 C.3      1 ZINC000000155531   -0.0200
10     H10    -0.8830   -2.3548   -4.7381 H        1 ZINC000000155531    0.1200
11     C11    -1.6371   -0.9938   -6.1987 C.ar     1 ZINC000000155531   -0.0800
12     C12    -1.7985    0.3104   -6.6274 C.ar     1 ZINC000000155531   -0.0700
13     C13    -2.4601    0.5714   -7.8127 C.ar     1 ZINC000000155531   -0.1300
14     C14    -2.9599   -0.4718   -8.5696 C.ar     1 ZINC000000155531   -0.1100
15     C15    -2.7976   -1.7761   -8.1413 C.ar     1 ZINC000000155531   -0.1300
16     C16    -2.1323   -2.0373   -6.9581 C.ar     1 ZINC000000155531   -0.1100
17     C17     0.5107   -0.7312   -4.9874 C.3      1 ZINC000000155531    0.1500
18     O18     0.4963    0.6975   -5.0144 O.3      1 ZINC000000155531   -0.5500
19     C19     1.3569   -1.2451   -3.7962 C.3      1 ZINC000000155531   -0.1500
20     C20     2.8055   -1.1346   -4.3332 C.3      1 ZINC000000155531   -0.1300
21     C21     2.6916   -1.5439   -5.8161 C.3      1 ZINC000000155531   -0.1300
22     C22     1.2326   -1.2875   -6.2321 C.3      1 ZINC000000155531   -0.1500
23     H23     0.9817    1.8505    0.0059 H        1 ZINC000000155531    0.0700
24     H24    -0.5582    1.8453   -0.8868 H        1 ZINC000000155531    0.0700
25     H25    -0.5614    1.8460    0.8931 H        1 ZINC000000155531    0.0300
26     H26     0.0934   -0.2192    2.0882 H        1 ZINC000000155531    0.0300
27     H27     0.6959   -1.5961    1.1345 H        1 ZINC000000155531    0.0700
28     H28     1.6544   -0.1000    1.2412 H        1 ZINC000000155531    0.0700
29     H29    -1.3837   -1.6000    0.0182 H        1 ZINC000000155531    0.0900
30     H30    -2.0212   -0.0832    0.6973 H        1 ZINC000000155531    0.0600
31     H31    -3.0412   -0.4700   -1.4944 H        1 ZINC000000155531    0.0700
32     H32    -1.9399    0.9242   -1.6029 H        1 ZINC000000155531    0.0700
33     H33    -1.4081    1.1255   -6.0361 H        1 ZINC000000155531    0.1300
34     H34    -2.5869    1.5904   -8.1473 H        1 ZINC000000155531    0.1200
35     H35    -3.4774   -0.2678   -9.4953 H        1 ZINC000000155531    0.1200
36     H36    -3.1884   -2.5911   -8.7325 H        1 ZINC000000155531    0.1200
37     H37    -2.0055   -3.0563   -6.6235 H        1 ZINC000000155531    0.1200
38     H38     1.3746    1.0988   -5.0655 H        1 ZINC000000155531    0.3800
39     H39     1.2194   -0.6091   -2.9218 H        1 ZINC000000155531    0.0900
40     H40     1.1088   -2.2809   -3.5646 H        1 ZINC000000155531    0.0800
41     H41     3.1672   -0.1099   -4.2469 H        1 ZINC000000155531    0.0700
42     H42     3.4640   -1.8188   -3.7980 H        1 ZINC000000155531    0.0700
43     H43     3.3649   -0.9388   -6.4233 H        1 ZINC000000155531    0.0700
44     H44     2.9325   -2.6007   -5.9313 H        1 ZINC000000155531    0.0700
45     H45     0.7653   -2.2198   -6.5492 H        1 ZINC000000155531    0.0800
46     H46     1.1977   -0.5578   -7.0412 H        1 ZINC000000155531    0.0800
@<TRIPOS>BOND
1     1     2     1
2     1     23    1
3     1     24    1
4     1     25    1
5     2     3     1
6     2     4     1
7     3     26    1
8     3     27    1
9     3     28    1
10    4     5     1
11    4     29    1
12    4     30    1
13    5     6     1
14    5     31    1
15    5     32    1
16    6     7     1
17    7     8     2
18    7     9     1
19    9     10    1
20    9     11    1
21    9     17    1
22    11    16    ar
23    11    12    ar
24    12    13    ar
25    12    33    1
26    13    14    ar
27    13    34    1
28    14    15    ar
29    14    35    1
30    15    16    ar
31    15    36    1
32    16    37    1
33    17    22    1
34    17    18    1
35    17    19    1
36    18    38    1
37    19    20    1
38    19    39    1
39    19    40    1
40    20    21    1
41    20    41    1
42    20    42    1
43    21    22    1
44    21    43    1
45    21    44    1
46    22    45    1
47    22    46    1
@<TRIPOS>SUBSTRUCTURE
1   ZINC000000155531 1     RESIDUE    1   A     ZIN   1
