@<TRIPOS>MOLECULE
ZINC000008466459
27   27    0    0    0
SMALL
USER_CHARGES
NO_NAME
@<TRIPOS>ATOM
1 C1       -0.0178     1.4648     0.0101 C.3    1 <0>      -0.0500
2 N2        0.0021    -0.0041     0.0020 N.4    1 <0>      -0.5100
3 H3       -0.9445    -0.3533     0.0092 H      1 <0>       0.4300
4 H4        0.4744    -0.3295    -0.8281 H      1 <0>       0.4300
5 C5        0.7126    -0.4907     1.1921 C.3    1 <0>       0.0300
6 H6        0.2557    -0.0671     2.0865 H      1 <0>       0.1400
7 C7        2.1805    -0.0656     1.1191 C.3    1 <0>      -0.1800
8 C8        0.6259    -2.0172     1.2492 C.3    1 <0>      -0.1000
9 C9       -0.8097    -2.4319     1.4446 C.ar   1 <0>      -0.1300
10 C10      -1.3185    -2.5808     2.7212 C.ar   1 <0>      -0.1100
11 C11      -2.6353    -2.9612     2.9005 C.ar   1 <0>      -0.1100
12 C12      -3.4435    -3.1922     1.8030 C.ar   1 <0>      -0.1000
13 C13      -2.9349    -3.0424     0.5264 C.ar   1 <0>      -0.1100
14 C14      -1.6193    -2.6579     0.3472 C.ar   1 <0>      -0.1400
15 H15       1.0047     1.8421     0.0024 H      1 <0>       0.1300
16 H16      -0.5450     1.8259    -0.8730 H      1 <0>       0.1300
17 H17      -0.5280     1.8163     0.9069 H      1 <0>       0.1200
18 H18       2.7077    -0.4267     2.0022 H      1 <0>       0.1100
19 H19       2.6374    -0.4891     0.2247 H      1 <0>       0.0800
20 H20       2.2422     1.0219     1.0784 H      1 <0>       0.0800
21 H21       1.0018    -2.4376     0.3164 H      1 <0>       0.1000
22 H22       1.2266    -2.3843     2.0813 H      1 <0>       0.1200
23 H23      -0.6871    -2.4003     3.5786 H      1 <0>       0.1300
24 H24      -3.0326    -3.0782     3.8979 H      1 <0>       0.1300
25 H25      -4.4721    -3.4901     1.9430 H      1 <0>       0.1300
26 H26      -3.5663    -3.2232    -0.3310 H      1 <0>       0.1300
27 H27      -1.2220    -2.5408    -0.6503 H      1 <0>       0.1200
@<TRIPOS>BOND
1    1    2 1
2    1   15 1
3    1   16 1
4    1   17 1
5    2    3 1
6    2    4 1
7    2    5 1
8    5    6 1
9    5    7 1
10    5    8 1
11    7   18 1
12    7   19 1
13    7   20 1
14    8    9 1
15    8   21 1
16    8   22 1
17    9   14 ar
18    9   10 ar
19   10   11 ar
20   10   23 1
21   11   12 ar
22   11   24 1
23   12   13 ar
24   12   25 1
25   13   14 ar
26   13   26 1
27   14   27 1
