@<TRIPOS>MOLECULE
ZINC000000395010
22   22    0    0    0
SMALL
USER_CHARGES
NO_NAME
@<TRIPOS>ATOM
1 C1       -0.0176     1.4478     0.0100 C.3    1 <0>       0.0400
2 O2        0.0021    -0.0041     0.0020 O.3    1 <0>      -0.3600
3 C3        0.6007    -0.6020    -1.0468 C.2    1 <0>       0.5100
4 O4        1.0927     0.0714    -1.9304 O.2    1 <0>      -0.4900
5 C5        0.6586    -2.0730    -1.1220 C.ar   1 <0>      -0.1700
6 C6        0.0890    -2.8514    -0.1111 C.ar   1 <0>      -0.0400
7 C7        0.1462    -4.2261    -0.1878 C.ar   1 <0>      -0.1500
8 C8        0.7665    -4.8410    -1.2629 C.ar   1 <0>      -0.0300
9 C9        0.8224    -6.3452    -1.3352 C.3    1 <0>      -0.1200
10 C10       1.3336    -4.0840    -2.2691 C.ar   1 <0>      -0.1600
11 C11       1.2805    -2.6996    -2.2116 C.ar   1 <0>       0.1800
12 O12       1.8371    -1.9547    -3.1992 O.3    1 <0>      -0.4800
13 H13       1.0050     1.8251     0.0023 H      1 <0>       0.0600
14 H14      -0.5448     1.8089    -0.8731 H      1 <0>       0.0600
15 H15      -0.5278     1.7993     0.9068 H      1 <0>       0.1000
16 H16      -0.3950    -2.3763     0.7294 H      1 <0>       0.1400
17 H17      -0.2943    -4.8269     0.5941 H      1 <0>       0.1400
18 H18      -0.0563    -6.7166    -1.8625 H      1 <0>       0.0800
19 H19       1.7224    -6.6501    -1.8693 H      1 <0>       0.0700
20 H20       0.8417    -6.7570    -0.3262 H      1 <0>       0.0700
21 H21       1.8154    -4.5710    -3.1041 H      1 <0>       0.1400
22 H22       1.2326    -1.7498    -3.9255 H      1 <0>       0.4000
@<TRIPOS>BOND
1    1    2 1
2    1   13 1
3    1   14 1
4    1   15 1
5    2    3 1
6    3    4 2
7    3    5 1
8    5   11 ar
9    5    6 ar
10    6    7 ar
11    6   16 1
12    7    8 ar
13    7   17 1
14    8    9 1
15    8   10 ar
16    9   18 1
17    9   19 1
18    9   20 1
19   10   11 ar
20   10   21 1
21   11   12 1
22   12   22 1
