@<TRIPOS>MOLECULE
ZINC000003981610
51    51    1     0     0
SMALL
USER_CHARGES
@<TRIPOS>ATOM
1      C1     -2.1106    1.6824    0.1525 C.3      1 ZINC000003981610   -0.1500
2      C2     -2.2768    0.1860    0.4244 C.3      1 ZINC000003981610   -0.1400
3      C3     -1.3143   -0.6039   -0.4647 C.3      1 ZINC000003981610   -0.1000
4      C4      0.1238   -0.1759   -0.1657 C.3      1 ZINC000003981610   -0.1200
5      C5      1.0714   -0.8350   -1.1700 C.3      1 ZINC000003981610   -0.1600
6      C6     -1.4704   -2.0996   -0.1825 C.3      1 ZINC000003981610    0.1600
7      H7     -1.2044   -2.3033    0.8547 H        1 ZINC000003981610    0.1100
8      N8     -0.5875   -2.8590   -1.0713 N.am     1 ZINC000003981610   -0.7200
9      C9     -0.7442   -2.7773   -2.4074 C.2      1 ZINC000003981610    0.5000
10     C10     0.0891   -3.6419   -3.3180 C.3      1 ZINC000003981610   -0.1800
11     O11    -1.5558   -2.0081   -2.8769 O.2      1 ZINC000003981610   -0.5300
12     C12    -2.9220   -2.5161   -0.4279 C.3      1 ZINC000003981610   -0.0900
13     H13    -3.2733   -2.1267   -1.3835 H        1 ZINC000003981610    0.1100
14     C14    -3.0575   -4.0585   -0.3883 C.3      1 ZINC000003981610    0.1200
15     H15    -2.4198   -4.4825    0.3874 H        1 ZINC000003981610    0.1000
16     N16    -2.7402   -4.6413   -1.6944 N.pl3    1 ZINC000003981610   -0.6700
17     C17    -2.2998   -5.9337   -1.7780 C.cat    1 ZINC000003981610    0.7300
18     N18    -2.1595   -6.6622   -0.6718 N.pl3    1 ZINC000003981610   -0.8000
19     N19    -2.0114   -6.4635   -2.9655 N.pl3    1 ZINC000003981610   -0.8000
20     H20    -2.1136   -5.9329   -3.7710 H        1 ZINC000003981610    0.4400
21     H21    -1.6991   -7.3799   -3.0247 H        1 ZINC000003981610    0.4400
22     C22    -4.5532   -4.2615   -0.0409 C.3      1 ZINC000003981610   -0.1100
23     C23    -4.8630   -3.1370    0.9687 C.3      1 ZINC000003981610   -0.1900
24     H24    -4.7717   -3.5142    1.9873 H        1 ZINC000003981610    0.0800
25     C25    -6.2541   -2.6052    0.7383 C.2      1 ZINC000003981610    0.4900
26     O26    -7.2168   -3.3434    0.8598 O.co2    1 ZINC000003981610   -0.6900
27     O27    -6.4168   -1.4368    0.4304 O.co2    1 ZINC000003981610   -0.6800
28     C28    -3.8265   -2.0242    0.7209 C.3      1 ZINC000003981610    0.1100
29     H29    -4.3308   -1.1012    0.4347 H        1 ZINC000003981610    0.1100
30     O30    -3.0466   -1.8104    1.8991 O.3      1 ZINC000003981610   -0.5700
31     H31    -2.7963    2.2452    0.7859 H        1 ZINC000003981610    0.0500
32     H32    -1.0854    1.9800    0.3728 H        1 ZINC000003981610    0.0500
33     H33    -2.3316    1.8882   -0.8948 H        1 ZINC000003981610    0.0500
34     H34    -2.0558   -0.0198    1.4718 H        1 ZINC000003981610    0.0800
35     H35    -3.3020   -0.1116    0.2042 H        1 ZINC000003981610    0.0800
36     H36    -1.5420   -0.4061   -1.5121 H        1 ZINC000003981610    0.0900
37     H37     0.2047    0.9081   -0.2472 H        1 ZINC000003981610    0.0700
38     H38     0.3925   -0.4853    0.8444 H        1 ZINC000003981610    0.0600
39     H39     2.0675   -0.4048   -1.0660 H        1 ZINC000003981610    0.0400
40     H40     1.1167   -1.9069   -0.9773 H        1 ZINC000003981610    0.0600
41     H41     0.7051   -0.6629   -2.1820 H        1 ZINC000003981610    0.0500
42     H42     0.1099   -3.4205   -0.6982 H        1 ZINC000003981610    0.4000
43     H43    -0.4284   -4.5842   -3.4982 H        1 ZINC000003981610    0.0700
44     H44     0.2455   -3.1264   -4.2656 H        1 ZINC000003981610    0.1000
45     H45     1.0527   -3.8405   -2.8490 H        1 ZINC000003981610    0.0800
46     H46    -2.8424   -4.1107   -2.5000 H        1 ZINC000003981610    0.4300
47     H47    -2.3695   -6.2764    0.1930 H        1 ZINC000003981610    0.4400
48     H48    -1.8472   -7.5787   -0.7310 H        1 ZINC000003981610    0.4400
49     H49    -5.1701   -4.1538   -0.9331 H        1 ZINC000003981610    0.0800
50     H50    -4.7095   -5.2385    0.4164 H        1 ZINC000003981610    0.0700
51     H51    -3.5619   -1.5225    2.6650 H        1 ZINC000003981610    0.3800
@<TRIPOS>BOND
1     1     2     1
2     1     31    1
3     1     32    1
4     1     33    1
5     2     3     1
6     2     34    1
7     2     35    1
8     3     4     1
9     3     6     1
10    3     36    1
11    4     5     1
12    4     37    1
13    4     38    1
14    5     39    1
15    5     40    1
16    5     41    1
17    6     7     1
18    6     8     1
19    6     12    1
20    8     9     am
21    8     42    1
22    9     10    1
23    9     11    2
24    10    43    1
25    10    44    1
26    10    45    1
27    12    13    1
28    12    28    1
29    12    14    1
30    14    15    1
31    14    16    1
32    14    22    1
33    16    17    ar
34    16    46    1
35    17    18    ar
36    17    19    ar
37    18    47    1
38    18    48    1
39    19    20    1
40    19    21    1
41    22    23    1
42    22    49    1
43    22    50    1
44    23    24    1
45    23    25    1
46    23    28    1
47    25    26    ar
48    25    27    ar
49    28    29    1
50    28    30    1
51    30    51    1
@<TRIPOS>SUBSTRUCTURE
1   ZINC000003981610 1     RESIDUE    1   A     ZIN   1
