@<TRIPOS>MOLECULE
ZINC000003823475
53   56    0    0    0
SMALL
USER_CHARGES
NO_NAME
@<TRIPOS>ATOM
1 C1       -0.5894    -0.8325     3.2151 C.3    1 <0>       0.0100
2 N2       -0.4517    -1.2590     1.8162 N.3    1 <0>      -0.5300
3 C3        0.1247    -2.6178     1.7308 C.3    1 <0>       0.0400
4 C4        0.9804    -2.6041     0.4396 C.3    1 <0>      -0.1300
5 C5        1.5677    -1.1685     0.4680 C.3    1 <0>      -0.1300
6 C6        0.4152    -0.3332     1.0644 C.3    1 <0>       0.0800
7 H7       -0.1533     0.1393     0.2634 H      1 <0>       0.0900
8 C8        0.9786     0.7357     2.0030 C.3    1 <0>      -0.0600
9 C9        1.8365     1.6931     1.2166 C.2    1 <0>      -0.1600
10 C10       3.1765     1.6853     1.1387 C.2    1 <0>       0.0500
11 N11       3.6030     2.7048     0.3318 N.pl3  1 <0>      -0.5900
12 C12       2.5202     3.4116    -0.1413 C.ar   1 <0>       0.1000
13 C13       2.3881     4.5153    -0.9772 C.ar   1 <0>      -0.1300
14 C14       1.1341     5.0042    -1.2722 C.ar   1 <0>      -0.0900
15 C15      -0.0012     4.4062    -0.7435 C.ar   1 <0>      -0.1000
16 C16      -1.3625     4.9578    -1.0805 C.3    1 <0>      -0.0700
17 C17      -1.8948     4.2689    -2.3386 C.3    1 <0>      -0.6000
18 S18      -3.5335     4.9330    -2.7442 S.o2   1 <0>       2.4900
19 O19      -4.4866     4.5407    -1.7661 O.2    1 <0>      -0.9300
20 O20      -3.4325     6.2857    -3.1676 O.2    1 <0>      -0.9300
21 C21      -4.0153     4.0582    -4.1959 C.ar   1 <0>      -0.6600
22 C22      -3.6894     4.5566    -5.4434 C.ar   1 <0>      -0.0300
23 C23      -4.0674     3.8703    -6.5822 C.ar   1 <0>      -0.1400
24 C24      -4.7711     2.6854    -6.4735 C.ar   1 <0>      -0.0700
25 C25      -5.0962     2.1865    -5.2260 C.ar   1 <0>      -0.1400
26 C26      -4.7145     2.8706    -4.0871 C.ar   1 <0>      -0.0200
27 C27       0.1054     3.3207     0.0800 C.ar   1 <0>      -0.0600
28 C28       1.3658     2.8051     0.3871 C.ar   1 <0>      -0.1000
29 H29      -1.0343     0.1620     3.2497 H      1 <0>       0.0700
30 H30      -1.2296    -1.5356     3.7480 H      1 <0>       0.0700
31 H31       0.3934    -0.8075     3.6857 H      1 <0>       0.0300
32 H32       0.7516    -2.8193     2.5994 H      1 <0>       0.0500
33 H33      -0.6679    -3.3620     1.6529 H      1 <0>       0.0800
34 H34       1.7727    -3.3511     0.4883 H      1 <0>       0.0700
35 H35       0.3582    -2.7540    -0.4427 H      1 <0>       0.0700
36 H36       2.4476    -1.1247     1.1099 H      1 <0>       0.0700
37 H37       1.8074    -0.8301    -0.5400 H      1 <0>       0.0700
38 H38       0.1571     1.2812     2.4672 H      1 <0>       0.0800
39 H39       1.5812     0.2591     2.7763 H      1 <0>       0.0700
40 H40       3.8225     0.9791     1.6391 H      1 <0>       0.1700
41 H41       4.5301     2.9004     0.1240 H      1 <0>       0.4200
42 H42       3.2656     4.9879    -1.3933 H      1 <0>       0.1200
43 H43       1.0337     5.8616    -1.9212 H      1 <0>       0.1300
44 H44      -2.0444     4.7750    -0.2500 H      1 <0>       0.0900
45 H45      -1.2860     6.0305    -1.2584 H      1 <0>       0.0900
46 H46      -1.2129     4.4517    -3.1691 H      1 <0>       0.1400
47 H47      -1.9714     3.1962    -2.1607 H      1 <0>       0.1400
48 H48      -3.1396     5.4823    -5.5283 H      1 <0>       0.1400
49 H49      -3.8133     4.2600    -7.5569 H      1 <0>       0.1300
50 H50      -5.0670     2.1495    -7.3633 H      1 <0>       0.1300
51 H51      -5.6463     1.2610    -5.1411 H      1 <0>       0.1300
52 H52      -4.9685     2.4809    -3.1124 H      1 <0>       0.1400
53 H53      -0.7824     2.8605     0.4878 H      1 <0>       0.1200
@<TRIPOS>BOND
1    1    2 1
2    1   29 1
3    1   30 1
4    1   31 1
5    2    6 1
6    2    3 1
7    3    4 1
8    3   32 1
9    3   33 1
10    4    5 1
11    4   34 1
12    4   35 1
13    5    6 1
14    5   36 1
15    5   37 1
16    6    7 1
17    6    8 1
18    8    9 1
19    8   38 1
20    8   39 1
21    9   28 1
22    9   10 2
23   10   11 1
24   10   40 1
25   11   12 1
26   11   41 1
27   12   28 ar
28   12   13 ar
29   13   14 ar
30   13   42 1
31   14   15 ar
32   14   43 1
33   15   16 1
34   15   27 ar
35   16   17 1
36   16   44 1
37   16   45 1
38   17   18 1
39   17   46 1
40   17   47 1
41   18   19 2
42   18   20 2
43   18   21 1
44   21   26 ar
45   21   22 ar
46   22   23 ar
47   22   48 1
48   23   24 ar
49   23   49 1
50   24   25 ar
51   24   50 1
52   25   26 ar
53   25   51 1
54   26   52 1
55   27   28 ar
56   27   53 1
