@<TRIPOS>MOLECULE
ZINC000169621220
94    97    1     0     0
SMALL
USER_CHARGES
@<TRIPOS>ATOM
1      C1     -6.9594   -0.2086    5.8303 C.3      1 ZINC000169621220   -0.1500
2      C2     -5.7983   -0.3459    4.8433 C.3      1 ZINC000169621220    0.0600
3      H3     -5.9457   -1.2349    4.2301 H        1 ZINC000169621220    0.1200
4      O4     -5.7476    0.8092    4.0036 O.3      1 ZINC000169621220   -0.3700
5      C5     -4.7092    0.7722    3.0225 C.3      1 ZINC000169621220    0.2100
6      H6     -4.7518    1.6754    2.4138 H        1 ZINC000169621220    0.1100
7      O7     -4.8837   -0.3740    2.1871 O.3      1 ZINC000169621220   -0.3600
8      C8     -5.8531   -0.1969    1.1523 C.3      1 ZINC000169621220    0.1200
9      H9     -6.6194    0.5021    1.4873 H        1 ZINC000169621220    0.0800
10     C10    -5.1811    0.3467   -0.0772 C.2      1 ZINC000169621220   -0.1400
11     C11    -4.4701    1.4798   -0.0766 C.2      1 ZINC000169621220   -0.1300
12     C12    -3.8395    1.8649   -1.3348 C.2      1 ZINC000169621220   -0.1100
13     C13    -2.8547    2.7689   -1.4466 C.2      1 ZINC000169621220   -0.1200
14     C14    -2.1428    2.8429   -2.6654 C.2      1 ZINC000169621220   -0.1300
15     C15    -0.8830    2.3979   -2.7148 C.2      1 ZINC000169621220   -0.1100
16     C16    -0.1750    2.1150   -3.9617 C.2      1 ZINC000169621220   -0.1300
17     C17     0.8603    1.2660   -3.8828 C.2      1 ZINC000169621220   -0.1300
18     C18     1.6255    0.8438   -5.1020 C.3      1 ZINC000169621220   -0.0900
19     C19     2.2061   -0.5539   -4.8723 C.3      1 ZINC000169621220    0.1000
20     H20     2.7288   -0.8804   -5.7713 H        1 ZINC000169621220    0.0800
21     C21     3.1900   -0.5085   -3.7016 C.3      1 ZINC000169621220   -0.1900
22     O22     1.1419   -1.4919   -4.5671 O.3      1 ZINC000169621220   -0.3500
23     C23     1.5033   -2.7012   -4.0849 C.2      1 ZINC000169621220    0.5000
24     O24     2.6748   -2.9455   -3.8731 O.2      1 ZINC000169621220   -0.5000
25     C25     0.4834   -3.7176   -3.8169 C.2      1 ZINC000169621220   -0.1800
26     C26     0.8250   -4.9117   -3.3328 C.2      1 ZINC000169621220   -0.0400
27     C27    -0.2346   -5.9492   -3.0771 C.3      1 ZINC000169621220    0.0100
28     H28    -1.0207   -6.0172   -3.8288 H        1 ZINC000169621220    0.1400
29     O29     0.1556   -7.1536   -2.4102 O.3      1 ZINC000169621220   -0.3300
30     C30    -0.6151   -6.2467   -1.6234 C.3      1 ZINC000169621220    0.0200
31     H31    -0.0953   -5.6794   -0.8446 H        1 ZINC000169621220    0.1300
32     C32    -2.0687   -6.6096   -1.3137 C.3      1 ZINC000169621220   -0.1500
33     C33    -2.6103   -5.6847   -0.2201 C.3      1 ZINC000169621220    0.1200
34     H34    -2.1906   -4.6873   -0.3510 H        1 ZINC000169621220    0.0600
35     O35    -2.2299   -6.1932    1.0601 O.3      1 ZINC000169621220   -0.5300
36     C36    -4.1347   -5.6055   -0.2956 C.3      1 ZINC000169621220   -0.1300
37     C37    -4.6760   -4.7915    0.8847 C.3      1 ZINC000169621220    0.3100
38     O38    -3.5965   -4.4488    1.7565 O.3      1 ZINC000169621220   -0.5100
39     C39    -5.6986   -5.6335    1.6502 C.3      1 ZINC000169621220   -0.1500
40     C40    -6.9731   -4.8132    1.8733 C.3      1 ZINC000169621220    0.1300
41     H41    -7.6213   -5.3334    2.5785 H        1 ZINC000169621220    0.0500
42     O42    -7.6573   -4.6481    0.6297 O.3      1 ZINC000169621220   -0.5600
43     C43    -6.6033   -3.4421    2.4374 C.3      1 ZINC000169621220   -0.1800
44     H44    -7.5113   -2.8651    2.6131 H        1 ZINC000169621220    0.0600
45     C45    -5.8613   -3.6179    3.7372 C.2      1 ZINC000169621220    0.5100
46     O46    -6.4320   -4.0892    4.7060 O.co2    1 ZINC000169621220   -0.7000
47     O47    -4.6902   -3.2888    3.8200 O.co2    1 ZINC000169621220   -0.6600
48     C48    -5.7107   -2.6971    1.4377 C.3      1 ZINC000169621220    0.1200
49     H49    -4.8347   -2.3092    1.9569 H        1 ZINC000169621220    0.1100
50     C50    -6.4992   -1.5429    0.8222 C.3      1 ZINC000169621220   -0.1100
51     O51    -5.3013   -3.6007    0.4071 O.3      1 ZINC000169621220   -0.3900
52     C52    -3.3502    0.6918    3.7226 C.3      1 ZINC000169621220    0.0700
53     H53    -2.5595    0.6190    2.9758 H        1 ZINC000169621220    0.1000
54     O54    -3.1515    1.8639    4.5156 O.3      1 ZINC000169621220   -0.5600
55     C55    -3.3204   -0.5476    4.6222 C.3      1 ZINC000169621220    0.0400
56     H56    -3.4218   -1.4443    4.0109 H        1 ZINC000169621220    0.2000
57     N57    -2.0476   -0.5931    5.3541 N.4      1 ZINC000169621220   -0.6300
58     H58    -1.9562    0.2360    5.9218 H        1 ZINC000169621220    0.4300
59     H59    -2.0292   -1.4099    5.9463 H        1 ZINC000169621220    0.4500
60     H60    -1.2831   -0.6368    4.6970 H        1 ZINC000169621220    0.4300
61     C61    -4.4830   -0.4715    5.6166 C.3      1 ZINC000169621220    0.0800
62     H62    -4.3550    0.3985    6.2607 H        1 ZINC000169621220    0.0700
63     O63    -4.5075   -1.6568    6.4143 O.3      1 ZINC000169621220   -0.5400
64     H64    -6.8118    0.6804    6.4434 H        1 ZINC000169621220    0.0600
65     H65    -7.8957   -0.1189    5.2796 H        1 ZINC000169621220    0.0700
66     H66    -6.9977   -1.0896    6.4710 H        1 ZINC000169621220    0.0800
67     H67    -5.2658   -0.2040   -1.0117 H        1 ZINC000169621220    0.1200
68     H68    -4.3540    2.0728    0.8122 H        1 ZINC000169621220    0.1100
69     H69    -4.2062    1.3955   -2.2512 H        1 ZINC000169621220    0.1100
70     H70    -2.6023    3.4306   -0.6331 H        1 ZINC000169621220    0.1100
71     H71    -2.6197    3.2567   -3.5429 H        1 ZINC000169621220    0.1200
72     H72    -0.3423    2.2514   -1.7780 H        1 ZINC000169621220    0.1100
73     H73    -0.4674    2.5577   -4.8926 H        1 ZINC000169621220    0.1200
74     H74     1.1400    0.8907   -2.9047 H        1 ZINC000169621220    0.1100
75     H75     0.9570    0.8236   -5.9627 H        1 ZINC000169621220    0.0800
76     H76     2.4360    1.5492   -5.2857 H        1 ZINC000169621220    0.1000
77     H77     2.6373   -0.4348   -2.7650 H        1 ZINC000169621220    0.0600
78     H78     3.7922   -1.4170   -3.6976 H        1 ZINC000169621220    0.0900
79     H79     3.8417    0.3588   -3.8081 H        1 ZINC000169621220    0.0700
80     H80    -0.5609   -3.4987   -4.0108 H        1 ZINC000169621220    0.1400
81     H81     1.8607   -5.1271   -3.1263 H        1 ZINC000169621220    0.1400
82     H82    -2.6707   -6.4964   -2.2153 H        1 ZINC000169621220    0.0900
83     H83    -2.1194   -7.6434   -0.9721 H        1 ZINC000169621220    0.0900
84     H84    -1.2738   -6.2599    1.1885 H        1 ZINC000169621220    0.3700
85     H85    -4.4262   -5.1258   -1.2299 H        1 ZINC000169621220    0.0900
86     H86    -4.5514   -6.6122   -0.2622 H        1 ZINC000169621220    0.0800
87     H87    -2.9044   -3.9199    1.3365 H        1 ZINC000169621220    0.3500
88     H88    -5.9380   -6.5269    1.0734 H        1 ZINC000169621220    0.0700
89     H89    -5.2808   -5.9248    2.6138 H        1 ZINC000169621220    0.0900
90     H90    -7.9225   -5.4795    0.2133 H        1 ZINC000169621220    0.3600
91     H91    -7.5170   -1.5573    1.2121 H        1 ZINC000169621220    0.0700
92     H92    -6.5303   -1.6683   -0.2601 H        1 ZINC000169621220    0.0800
93     H93    -3.1630    2.6878    4.0095 H        1 ZINC000169621220    0.4000
94     H94    -5.2203   -1.6767    7.0675 H        1 ZINC000169621220    0.4000
@<TRIPOS>BOND
1     1     2     1
2     1     64    1
3     1     65    1
4     1     66    1
5     2     3     1
6     2     61    1
7     2     4     1
8     4     5     1
9     5     6     1
10    5     7     1
11    5     52    1
12    7     8     1
13    8     9     1
14    8     50    1
15    8     10    1
16    10    11    2
17    10    67    1
18    11    12    1
19    11    68    1
20    12    13    2
21    12    69    1
22    13    14    1
23    13    70    1
24    14    15    2
25    14    71    1
26    15    16    1
27    15    72    1
28    16    17    2
29    16    73    1
30    17    18    1
31    17    74    1
32    18    19    1
33    18    75    1
34    18    76    1
35    19    20    1
36    19    21    1
37    19    22    1
38    21    77    1
39    21    78    1
40    21    79    1
41    22    23    1
42    23    24    2
43    23    25    1
44    25    26    2
45    25    80    1
46    26    27    1
47    26    81    1
48    27    28    1
49    27    30    1
50    27    29    1
51    29    30    1
52    30    31    1
53    30    32    1
54    32    33    1
55    32    82    1
56    32    83    1
57    33    34    1
58    33    35    1
59    33    36    1
60    35    84    1
61    36    37    1
62    36    85    1
63    36    86    1
64    37    51    1
65    37    38    1
66    37    39    1
67    38    87    1
68    39    40    1
69    39    88    1
70    39    89    1
71    40    41    1
72    40    42    1
73    40    43    1
74    42    90    1
75    43    44    1
76    43    45    1
77    43    48    1
78    45    46    ar
79    45    47    ar
80    48    49    1
81    48    50    1
82    48    51    1
83    50    91    1
84    50    92    1
85    52    53    1
86    52    54    1
87    52    55    1
88    54    93    1
89    55    56    1
90    55    57    1
91    55    61    1
92    57    58    1
93    57    59    1
94    57    60    1
95    61    62    1
96    61    63    1
97    63    94    1
@<TRIPOS>SUBSTRUCTURE
1   ZINC000169621220 1     RESIDUE    1   A     ZIN   1
