@<TRIPOS>MOLECULE
ZINC000000897222
41    43    1     0     0
SMALL
USER_CHARGES
@<TRIPOS>ATOM
1      N1     -0.2535   -0.9113    1.2415 N.am     1 ZINC000000897222   -1.2400
2      S2      0.4436   -0.1639   -0.0615 S.o2     1 ZINC000000897222    2.6900
3      O3      0.1487    1.2204    0.0650 O.2      1 ZINC000000897222   -0.9400
4      O4      1.7677   -0.6712   -0.1541 O.2      1 ZINC000000897222   -0.9500
5      C5     -0.4057   -0.7241   -1.5001 C.ar     1 ZINC000000897222   -0.7100
6      C6      0.2617   -1.4754   -2.4504 C.ar     1 ZINC000000897222    0.1200
7      C7     -0.4024   -1.9085   -3.5789 C.ar     1 ZINC000000897222   -0.7200
8      C8     -1.7393   -1.5914   -3.7775 C.ar     1 ZINC000000897222    0.3500
9      C9     -2.4078   -0.8429   -2.8098 C.ar     1 ZINC000000897222   -0.1600
10     C10    -1.7426   -0.4183   -1.6788 C.ar     1 ZINC000000897222    0.0000
11     C11    -2.4724    0.3925   -0.6391 C.3      1 ZINC000000897222    0.4800
12     F12    -3.8295    0.4639   -0.9714 F        1 ZINC000000897222   -0.1700
13     F13    -2.3302   -0.2172    0.6120 F        1 ZINC000000897222   -0.1700
14     F14    -1.9351    1.6833   -0.5926 F        1 ZINC000000897222   -0.1300
15     N15    -2.4296   -1.9765   -4.9237 N.pl3    1 ZINC000000897222   -0.7300
16     C16    -2.0196   -3.0940   -5.7704 C.3      1 ZINC000000897222    0.3800
17     H17    -2.6017   -3.0872   -6.6920 H        1 ZINC000000897222    0.1400
18     C18    -2.2496   -4.4118   -5.0279 C.3      1 ZINC000000897222   -0.1200
19     C19    -3.7227   -4.5890   -4.7635 C.ar     1 ZINC000000897222   -0.0900
20     C20    -4.2954   -4.0266   -3.6381 C.ar     1 ZINC000000897222   -0.1100
21     C21    -5.6466   -4.1891   -3.3956 C.ar     1 ZINC000000897222   -0.1200
22     C22    -6.4251   -4.9136   -4.2788 C.ar     1 ZINC000000897222   -0.1200
23     C23    -5.8525   -5.4751   -5.4047 C.ar     1 ZINC000000897222   -0.1200
24     C24    -4.5022   -5.3090   -5.6494 C.ar     1 ZINC000000897222   -0.1100
25     N25    -0.5853   -2.9454   -6.0895 N.am     1 ZINC000000897222   -1.1100
26     S26     0.4493   -2.8840   -4.7819 S.o2     1 ZINC000000897222    2.6900
27     O27     1.5838   -2.1326   -5.1913 O.2      1 ZINC000000897222   -0.9400
28     O28     0.5281   -4.2028   -4.2587 O.2      1 ZINC000000897222   -0.9300
29     H29    -0.7259   -0.3863    1.9064 H        1 ZINC000000897222    0.4300
30     H30    -0.1930   -1.8746    1.3377 H        1 ZINC000000897222    0.4200
31     H31     1.3035   -1.7227   -2.3089 H        1 ZINC000000897222    0.1700
32     H32    -3.4512   -0.5986   -2.9441 H        1 ZINC000000897222    0.1600
33     H33    -3.2234   -1.4775   -5.1724 H        1 ZINC000000897222    0.4200
34     H34    -1.8877   -5.2401   -5.6371 H        1 ZINC000000897222    0.1100
35     H35    -1.7101   -4.3943   -4.0810 H        1 ZINC000000897222    0.0900
36     H36    -3.6872   -3.4607   -2.9481 H        1 ZINC000000897222    0.1200
37     H37    -6.0939   -3.7504   -2.5159 H        1 ZINC000000897222    0.1200
38     H38    -7.4806   -5.0411   -4.0889 H        1 ZINC000000897222    0.1200
39     H39    -6.4607   -6.0414   -6.0945 H        1 ZINC000000897222    0.1200
40     H40    -4.0548   -5.7477   -6.5291 H        1 ZINC000000897222    0.1300
41     H41    -0.2644   -2.8873   -7.0030 H        1 ZINC000000897222    0.4300
@<TRIPOS>BOND
1     1     2     am
2     1     29    1
3     1     30    1
4     2     3     2
5     2     4     2
6     2     5     1
7     5     10    ar
8     5     6     ar
9     6     7     ar
10    6     31    1
11    7     26    1
12    7     8     ar
13    8     9     ar
14    8     15    1
15    9     10    ar
16    9     32    1
17    10    11    1
18    11    12    1
19    11    13    1
20    11    14    1
21    15    16    1
22    15    33    1
23    16    17    1
24    16    18    1
25    16    25    1
26    18    19    1
27    18    34    1
28    18    35    1
29    19    24    ar
30    19    20    ar
31    20    21    ar
32    20    36    1
33    21    22    ar
34    21    37    1
35    22    23    ar
36    22    38    1
37    23    24    ar
38    23    39    1
39    24    40    1
40    25    26    am
41    25    41    1
42    26    27    2
43    26    28    2
@<TRIPOS>SUBSTRUCTURE
1   ZINC000000897222 1     RESIDUE    1   A     ZIN   1
