@<TRIPOS>MOLECULE
ZINC000013911941
74    76    1     0     0
SMALL
USER_CHARGES
@<TRIPOS>ATOM
1      C1     -0.5497    1.0283    0.4114 C.3      1 ZINC000013911941   -0.1500
2      C2     -0.3050   -0.4689    0.2126 C.3      1 ZINC000013911941   -0.0500
3      H3     -1.2613   -0.9877    0.1459 H        1 ZINC000013911941    0.0800
4      C4      0.4792   -1.0091    1.3807 C.2      1 ZINC000013911941   -0.1400
5      C5     -0.0270   -1.9604    2.1256 C.2      1 ZINC000013911941   -0.1400
6      C6      0.7571   -2.5007    3.2936 C.3      1 ZINC000013911941   -0.0900
7      H7      1.7135   -1.9819    3.3603 H        1 ZINC000013911941    0.0700
8      C8      1.0019   -3.9978    3.0949 C.3      1 ZINC000013911941   -0.1500
9      C9     -0.0338   -2.2802    4.5846 C.3      1 ZINC000013911941    0.1300
10     C10    -1.3762   -3.0083    4.4910 C.3      1 ZINC000013911941   -0.1400
11     C11     0.7623   -2.8286    5.7705 C.3      1 ZINC000013911941   -0.1800
12     O12    -0.2624   -0.8818    4.7703 O.3      1 ZINC000013911941   -0.5600
13     C13     0.4860   -0.6894   -1.0784 C.3      1 ZINC000013911941   -0.0700
14     H14     1.4510   -0.1860   -1.0210 H        1 ZINC000013911941    0.0700
15     C15     0.6839   -2.2060   -1.3366 C.3      1 ZINC000013911941   -0.1200
16     C16     0.0772   -2.4931   -2.7392 C.3      1 ZINC000013911941   -0.1200
17     C17     0.1508   -1.1271   -3.4253 C.3      1 ZINC000013911941   -0.0600
18     H18     1.1730   -0.9028   -3.7300 H        1 ZINC000013911941    0.0800
19     C19    -0.8040   -0.8899   -4.5574 C.2      1 ZINC000013911941   -0.0800
20     C20    -1.5334   -1.8648   -5.0894 C.2      1 ZINC000013911941   -0.1400
21     C21    -2.4541   -1.5729   -6.1991 C.2      1 ZINC000013911941   -0.1200
22     C22    -3.2606   -2.5227   -6.6605 C.2      1 ZINC000013911941   -0.1100
23     C23    -3.3581   -3.8627   -5.9655 C.3      1 ZINC000013911941   -0.1200
24     C24    -4.8367   -4.1712   -5.7074 C.3      1 ZINC000013911941    0.1100
25     H25    -4.9317   -5.1753   -5.2939 H        1 ZINC000013911941    0.0600
26     O26    -5.3668   -3.2218   -4.7802 O.3      1 ZINC000013911941   -0.5600
27     C27    -5.6108   -4.0862   -7.0238 C.3      1 ZINC000013911941   -0.1100
28     C28    -5.5568   -2.6569   -7.5659 C.3      1 ZINC000013911941    0.1100
29     H29    -5.9442   -1.9684   -6.8149 H        1 ZINC000013911941    0.0700
30     O30    -6.3508   -2.5661   -8.7505 O.3      1 ZINC000013911941   -0.5700
31     C31    -4.1096   -2.2894   -7.8905 C.3      1 ZINC000013911941   -0.1100
32     C32    -0.8782    0.5472   -5.0530 C.3      1 ZINC000013911941   -0.0900
33     C33    -1.0851    1.5113   -3.8864 C.3      1 ZINC000013911941   -0.1200
34     C34    -0.1002    1.2364   -2.7376 C.3      1 ZINC000013911941   -0.1100
35     C35    -0.3040   -0.1826   -2.2750 C.3      1 ZINC000013911941   -0.0500
36     C36    -1.7931   -0.4209   -2.0164 C.3      1 ZINC000013911941   -0.1500
37     H37     0.4066    1.5470    0.4781 H        1 ZINC000013911941    0.0500
38     H38    -1.1169    1.4190   -0.4334 H        1 ZINC000013911941    0.0700
39     H39    -1.1132    1.1853    1.3311 H        1 ZINC000013911941    0.0500
40     H40     1.4585   -0.6120    1.6036 H        1 ZINC000013911941    0.1000
41     H41    -1.0063   -2.3575    1.9027 H        1 ZINC000013911941    0.1100
42     H42     0.0456   -4.5166    3.0282 H        1 ZINC000013911941    0.0600
43     H43     1.5654   -4.1549    2.1751 H        1 ZINC000013911941    0.0600
44     H44     1.5691   -4.3886    3.9397 H        1 ZINC000013911941    0.0600
45     H45    -1.2018   -4.0750    4.3494 H        1 ZINC000013911941    0.0700
46     H46    -1.9396   -2.8513    5.4107 H        1 ZINC000013911941    0.0600
47     H47    -1.9433   -2.6176    3.6462 H        1 ZINC000013911941    0.0600
48     H48     1.7186   -2.3099    5.8372 H        1 ZINC000013911941    0.0600
49     H49     0.1988   -2.6715    6.6902 H        1 ZINC000013911941    0.0600
50     H50     0.9367   -3.8952    5.6289 H        1 ZINC000013911941    0.0700
51     H51     0.5467   -0.3566    4.8381 H        1 ZINC000013911941    0.3700
52     H52     1.7459   -2.4512   -1.3308 H        1 ZINC000013911941    0.0600
53     H53     0.1610   -2.7865   -0.5766 H        1 ZINC000013911941    0.0700
54     H54     0.6769   -3.2280   -3.2763 H        1 ZINC000013911941    0.0600
55     H55    -0.9569   -2.8263   -2.6519 H        1 ZINC000013911941    0.0700
56     H56    -1.4504   -2.8715   -4.7071 H        1 ZINC000013911941    0.1200
57     H57    -2.4743   -0.5867   -6.6388 H        1 ZINC000013911941    0.1100
58     H58    -2.9281   -4.6369   -6.6010 H        1 ZINC000013911941    0.0800
59     H59    -2.8214   -3.8234   -5.0175 H        1 ZINC000013911941    0.0800
60     H60    -4.9218   -3.2197   -3.9217 H        1 ZINC000013911941    0.3800
61     H61    -5.1660   -4.7662   -7.7503 H        1 ZINC000013911941    0.0800
62     H62    -6.6493   -4.3696   -6.8524 H        1 ZINC000013911941    0.0800
63     H63    -6.3625   -1.6853   -9.1495 H        1 ZINC000013911941    0.3800
64     H64    -4.0547   -1.2403   -8.1814 H        1 ZINC000013911941    0.0700
65     H65    -3.7461   -2.9172   -8.7040 H        1 ZINC000013911941    0.0800
66     H66     0.0502    0.7984   -5.5659 H        1 ZINC000013911941    0.0700
67     H67    -1.7103    0.6439   -5.7504 H        1 ZINC000013911941    0.0700
68     H68    -0.9425    2.5324   -4.2399 H        1 ZINC000013911941    0.0600
69     H69    -2.1039    1.4048   -3.5140 H        1 ZINC000013911941    0.0700
70     H70     0.9237    1.3575   -3.0912 H        1 ZINC000013911941    0.0600
71     H71    -0.2917    1.9238   -1.9137 H        1 ZINC000013911941    0.0700
72     H72    -2.3544   -0.2409   -2.9333 H        1 ZINC000013911941    0.0600
73     H73    -1.9455   -1.4507   -1.6934 H        1 ZINC000013911941    0.0500
74     H74    -2.1401    0.2591   -1.2385 H        1 ZINC000013911941    0.0600
@<TRIPOS>BOND
1     1     2     1
2     1     37    1
3     1     38    1
4     1     39    1
5     2     3     1
6     2     4     1
7     2     13    1
8     4     5     2
9     4     40    1
10    5     6     1
11    5     41    1
12    6     7     1
13    6     8     1
14    6     9     1
15    8     42    1
16    8     43    1
17    8     44    1
18    9     10    1
19    9     11    1
20    9     12    1
21    10    45    1
22    10    46    1
23    10    47    1
24    11    48    1
25    11    49    1
26    11    50    1
27    12    51    1
28    13    14    1
29    13    35    1
30    13    15    1
31    15    16    1
32    15    52    1
33    15    53    1
34    16    17    1
35    16    54    1
36    16    55    1
37    17    18    1
38    17    35    1
39    17    19    1
40    19    20    2
41    19    32    1
42    20    21    1
43    20    56    1
44    21    22    2
45    21    57    1
46    22    31    1
47    22    23    1
48    23    24    1
49    23    58    1
50    23    59    1
51    24    25    1
52    24    26    1
53    24    27    1
54    26    60    1
55    27    28    1
56    27    61    1
57    27    62    1
58    28    29    1
59    28    30    1
60    28    31    1
61    30    63    1
62    31    64    1
63    31    65    1
64    32    33    1
65    32    66    1
66    32    67    1
67    33    34    1
68    33    68    1
69    33    69    1
70    34    35    1
71    34    70    1
72    34    71    1
73    35    36    1
74    36    72    1
75    36    73    1
76    36    74    1
@<TRIPOS>SUBSTRUCTURE
1   ZINC000013911941 1     RESIDUE    1   A     ZIN   1
