@<TRIPOS>MOLECULE
ZINC000000896695
20   19    0    0    0
SMALL
NO_CHARGES
@<TRIPOS>ATOM
1 N1            -0.0116     1.0048     0.0076 N.4
2 H2             0.0021    -0.0041     0.0020 H
3 H3             0.9350     1.3541     0.0004 H
4 H4            -0.4996     1.3391    -0.8099 H
5 C5            -0.6992     1.4786     1.2162 C.3
6 C6             0.0408     0.9717     2.4557 C.3
7 O7            -0.6281     1.4326     3.6314 O.3
8 C8            -0.7199     3.0084     1.2246 C.3
9 O9             0.6144     3.5036     1.0971 O.3
10 C10           -2.1346     0.9490     1.2270 C.3
11 O11           -2.1152    -0.4799     1.2192 O.3
12 H12            0.0556    -0.1182     2.4497 H
13 H13            1.0634     1.3490     2.4480 H
14 H14           -0.2128     1.1483     4.4571 H
15 H15           -1.3223     3.3682     0.3904 H
16 H16           -1.1502     3.3608     2.1620 H
17 H17            0.6774     4.4685     1.0950 H
18 H18           -2.6448     1.3005     2.1238 H
19 H19           -2.6618     1.3101     0.3440 H
20 H20           -2.9931    -0.8852     1.2254 H
@<TRIPOS>BOND
1    1    2 1
2    1    3 1
3    1    4 1
4    1    5 1
5    5    6 1
6    5    8 1
7    5   10 1
8    6    7 1
9    6   12 1
10    6   13 1
11    7   14 1
12    8    9 1
13    8   15 1
14    8   16 1
15    9   17 1
16   10   11 1
17   10   18 1
18   10   19 1
19   11   20 1
