@<TRIPOS>MOLECULE
ZINC000022447798
69    68    1     0     0
SMALL
USER_CHARGES
@<TRIPOS>ATOM
1      C1      4.4932   -6.2831    3.6091 C.3      1 ZINC000022447798    0.0300
2      O2      3.8323   -6.6784    2.4053 O.3      1 ZINC000022447798   -0.3800
3      C3      4.2050   -5.9112    1.2588 C.3      1 ZINC000022447798    0.0500
4      C4      3.4403   -6.4190    0.0347 C.3      1 ZINC000022447798    0.1200
5      N5      2.0077   -6.1724    0.2171 N.am     1 ZINC000022447798   -0.7400
6      C6      1.1335   -6.5393   -0.7408 C.2      1 ZINC000022447798    0.5100
7      O7      1.5327   -7.0736   -1.7538 O.2      1 ZINC000022447798   -0.5000
8      C8     -0.3401   -6.2856   -0.5533 C.3      1 ZINC000022447798    0.0300
9      N9     -1.0744   -6.7731   -1.7285 N.3      1 ZINC000022447798   -0.4900
10     C10    -2.5232   -6.7615   -1.4861 C.3      1 ZINC000022447798    0.0700
11     C11    -2.8979   -7.9350   -0.5788 C.3      1 ZINC000022447798    0.0700
12     N12    -4.3588   -7.9982   -0.4381 N.3      1 ZINC000022447798   -0.5000
13     C13    -4.7704   -9.2421    0.2261 C.3      1 ZINC000022447798    0.0900
14     C14    -4.6622  -10.4068   -0.7601 C.3      1 ZINC000022447798    0.0500
15     N15    -5.1679  -11.6325   -0.1277 N.3      1 ZINC000022447798   -0.5000
16     C16    -6.6092  -11.5320    0.1376 C.3      1 ZINC000022447798   -0.0100
17     C17    -7.3470  -11.3393   -1.1623 C.2      1 ZINC000022447798    0.4800
18     O18    -6.7387  -11.3679   -2.2185 O.co2    1 ZINC000022447798   -0.6900
19     O19    -8.5522  -11.1550   -1.1577 O.co2    1 ZINC000022447798   -0.7100
20     C20    -4.8648  -12.8122   -0.9489 C.3      1 ZINC000022447798    0.0200
21     C21    -4.9990  -14.0566   -0.1095 C.2      1 ZINC000022447798    0.5200
22     O22    -5.3157  -13.9693    1.0579 O.2      1 ZINC000022447798   -0.5300
23     N23    -4.7671  -15.2665   -0.6562 N.am     1 ZINC000022447798   -0.7400
24     C24    -4.8976  -16.4761    0.1598 C.3      1 ZINC000022447798    0.1300
25     C25    -4.5823  -17.7048   -0.6956 C.3      1 ZINC000022447798    0.0500
26     O26    -3.2116  -17.6662   -1.0978 O.3      1 ZINC000022447798   -0.3800
27     C27    -2.8114  -18.7749   -1.9056 C.3      1 ZINC000022447798    0.0300
28     C28    -4.8698   -6.8235    0.2808 C.3      1 ZINC000022447798    0.0000
29     C29    -6.3586   -6.7160    0.0736 C.2      1 ZINC000022447798    0.4900
30     O30    -6.9404   -7.5428   -0.6079 O.co2    1 ZINC000022447798   -0.6400
31     O31    -6.9812   -5.8023    0.5873 O.co2    1 ZINC000022447798   -0.7400
32     C32    -0.7343   -5.9900   -2.9239 C.3      1 ZINC000022447798    0.0000
33     C33    -1.2080   -6.7200   -4.1542 C.2      1 ZINC000022447798    0.5000
34     O34    -1.6848   -7.8377   -4.0542 O.co2    1 ZINC000022447798   -0.6600
35     O35    -1.1144   -6.1930   -5.2497 O.co2    1 ZINC000022447798   -0.7300
36     H36     5.5705   -6.3929    3.4850 H        1 ZINC000022447798    0.0400
37     H37     4.2569   -5.2418    3.8281 H        1 ZINC000022447798    0.0400
38     H38     4.1561   -6.9130    4.4323 H        1 ZINC000022447798    0.0900
39     H39     3.9628   -4.8622    1.4291 H        1 ZINC000022447798    0.0500
40     H40     5.2764   -6.0134    1.0859 H        1 ZINC000022447798    0.0600
41     H41     3.7889   -5.8945   -0.8549 H        1 ZINC000022447798    0.0800
42     H42     3.6126   -7.4888   -0.0833 H        1 ZINC000022447798    0.0700
43     H43     1.6884   -5.7450    1.0272 H        1 ZINC000022447798    0.4000
44     H44    -0.6888   -6.8101    0.3363 H        1 ZINC000022447798    0.1000
45     H45    -0.5125   -5.2158   -0.4352 H        1 ZINC000022447798    0.0500
46     H46    -2.8033   -5.8252   -1.0035 H        1 ZINC000022447798    0.0200
47     H47    -3.0511   -6.8531   -2.4354 H        1 ZINC000022447798    0.1000
48     H48    -2.5347   -8.8642   -1.0178 H        1 ZINC000022447798    0.0800
49     H49    -2.4442   -7.7950    0.4023 H        1 ZINC000022447798    0.0000
50     H50    -4.1215   -9.4290    1.0817 H        1 ZINC000022447798    0.0000
51     H51    -5.8019   -9.1484    0.5659 H        1 ZINC000022447798    0.0800
52     H52    -5.2531  -10.1863   -1.6491 H        1 ZINC000022447798    0.0900
53     H53    -3.6190  -10.5477   -1.0430 H        1 ZINC000022447798    0.0500
54     H54    -6.9546  -12.4467    0.6193 H        1 ZINC000022447798    0.0600
55     H55    -6.7996  -10.6820    0.7928 H        1 ZINC000022447798    0.0700
56     H56    -5.5617  -12.8613   -1.7855 H        1 ZINC000022447798    0.1100
57     H57    -3.8458  -12.7384   -1.3288 H        1 ZINC000022447798    0.0800
58     H58    -4.5138  -15.3363   -1.5899 H        1 ZINC000022447798    0.4000
59     H59    -4.2005  -16.4271    0.9963 H        1 ZINC000022447798    0.0700
60     H60    -5.9165  -16.5498    0.5399 H        1 ZINC000022447798    0.0800
61     H61    -4.7651  -18.6087   -0.1145 H        1 ZINC000022447798    0.0600
62     H62    -5.2204  -17.7058   -1.5793 H        1 ZINC000022447798    0.0600
63     H63    -2.9575  -19.7010   -1.3497 H        1 ZINC000022447798    0.0400
64     H64    -3.4128  -18.7981   -2.8145 H        1 ZINC000022447798    0.0400
65     H65    -1.7588  -18.6714   -2.1690 H        1 ZINC000022447798    0.0800
66     H66    -4.6577   -6.9281    1.3449 H        1 ZINC000022447798    0.0100
67     H67    -4.3842   -5.9249   -0.0998 H        1 ZINC000022447798    0.0600
68     H68    -1.2198   -5.0155   -2.8702 H        1 ZINC000022447798    0.0200
69     H69     0.3462   -5.8553   -2.9748 H        1 ZINC000022447798    0.0700
@<TRIPOS>BOND
1     1     2     1
2     1     36    1
3     1     37    1
4     1     38    1
5     2     3     1
6     3     4     1
7     3     39    1
8     3     40    1
9     4     5     1
10    4     41    1
11    4     42    1
12    5     6     am
13    5     43    1
14    6     7     2
15    6     8     1
16    8     9     1
17    8     44    1
18    8     45    1
19    9     10    1
20    9     32    1
21    10    11    1
22    10    46    1
23    10    47    1
24    11    12    1
25    11    48    1
26    11    49    1
27    12    13    1
28    12    28    1
29    13    14    1
30    13    50    1
31    13    51    1
32    14    15    1
33    14    52    1
34    14    53    1
35    15    16    1
36    15    20    1
37    16    17    1
38    16    54    1
39    16    55    1
40    17    18    ar
41    17    19    ar
42    20    21    1
43    20    56    1
44    20    57    1
45    21    22    2
46    21    23    am
47    23    24    1
48    23    58    1
49    24    25    1
50    24    59    1
51    24    60    1
52    25    26    1
53    25    61    1
54    25    62    1
55    26    27    1
56    27    63    1
57    27    64    1
58    27    65    1
59    28    29    1
60    28    66    1
61    28    67    1
62    29    30    ar
63    29    31    ar
64    32    33    1
65    32    68    1
66    32    69    1
67    33    34    ar
68    33    35    ar
@<TRIPOS>SUBSTRUCTURE
1   ZINC000022447798 1     RESIDUE    1   A     ZIN   1
