@<TRIPOS>MOLECULE
ZINC000000001382
30    30    1     0     0
SMALL
USER_CHARGES
@<TRIPOS>ATOM
1      C1      1.5588    1.3960    1.2311 C.2      1 ZINC000000001382   -0.1000
2      C2      1.4466    0.0699    1.2704 C.2      1 ZINC000000001382   -0.1900
3      C3      1.5758   -0.6587    2.5833 C.3      1 ZINC000000001382   -0.0900
4      C4      0.1848   -0.8902    3.1771 C.3      1 ZINC000000001382   -0.1500
5      C5      1.1965   -0.6838    0.0330 C.2      1 ZINC000000001382    0.4500
6      O6      1.1488   -0.1020   -1.0345 O.2      1 ZINC000000001382   -0.4400
7      C7      1.0034   -2.1453    0.0857 C.ar     1 ZINC000000001382   -0.1900
8      C8     -0.2794   -2.6879   -0.0360 C.ar     1 ZINC000000001382   -0.0300
9      C9     -0.4557   -4.0524    0.0132 C.ar     1 ZINC000000001382   -0.2000
10     C10     0.6391   -4.8921    0.1841 C.ar     1 ZINC000000001382    0.1800
11     O11     0.4596   -6.2365    0.2319 O.3      1 ZINC000000001382   -0.2600
12     C12    -0.8796   -6.7173    0.0999 C.3      1 ZINC000000001382   -0.0100
13     C13    -0.8828   -8.2224    0.1765 C.2      1 ZINC000000001382    0.5000
14     O14     0.1646   -8.8272    0.3299 O.co2    1 ZINC000000001382   -0.6600
15     O15    -1.9329   -8.8352    0.0852 O.co2    1 ZINC000000001382   -0.6800
16     C16     1.9177   -4.3586    0.3058 C.ar     1 ZINC000000001382   -0.0800
17     Cl17    3.2805   -5.4127    0.5190 Cl       1 ZINC000000001382   -0.0300
18     C18     2.1046   -2.9933    0.2519 C.ar     1 ZINC000000001382    0.0300
19     Cl19    3.7005   -2.3271    0.4037 Cl       1 ZINC000000001382   -0.0400
20     H20     1.4663    1.9181    0.2903 H        1 ZINC000000001382    0.1100
21     H21     1.7381    1.9499    2.1408 H        1 ZINC000000001382    0.1200
22     H22     2.0653   -1.6187    2.4194 H        1 ZINC000000001382    0.0800
23     H23     2.1706   -0.0607    3.2737 H        1 ZINC000000001382    0.0700
24     H24    -0.3047    0.0698    3.3410 H        1 ZINC000000001382    0.0500
25     H25    -0.4100   -1.4882    2.4867 H        1 ZINC000000001382    0.0600
26     H26     0.2783   -1.4172    4.1267 H        1 ZINC000000001382    0.0600
27     H27    -1.1312   -2.0373   -0.1681 H        1 ZINC000000001382    0.1400
28     H28    -1.4466   -4.4714   -0.0809 H        1 ZINC000000001382    0.1500
29     H29    -1.4924   -6.3112    0.9047 H        1 ZINC000000001382    0.0700
30     H30    -1.2860   -6.4015   -0.8609 H        1 ZINC000000001382    0.0700
@<TRIPOS>BOND
1     1     2     2
2     1     20    1
3     1     21    1
4     2     3     1
5     2     5     1
6     3     4     1
7     3     22    1
8     3     23    1
9     4     24    1
10    4     25    1
11    4     26    1
12    5     6     2
13    5     7     1
14    7     18    ar
15    7     8     ar
16    8     9     ar
17    8     27    1
18    9     10    ar
19    9     28    1
20    10    11    1
21    10    16    ar
22    11    12    1
23    12    13    1
24    12    29    1
25    12    30    1
26    13    14    ar
27    13    15    ar
28    16    17    1
29    16    18    ar
30    18    19    1
@<TRIPOS>SUBSTRUCTURE
1   ZINC000000001382 1     RESIDUE    1   A     ZIN   1
