@<TRIPOS>MOLECULE
ZINC000002570895
40    42    1     0     0
SMALL
USER_CHARGES
@<TRIPOS>ATOM
1      C1      0.0314    1.5033    0.0101 C.3      1 ZINC000002570895   -0.1200
2      C2      0.0410   -0.0037    0.0018 C.ar     1 ZINC000002570895   -0.0600
3      C3     -0.4705   -0.6897   -1.0853 C.ar     1 ZINC000002570895   -0.1200
4      C4     -0.4651   -2.0694   -1.0988 C.ar     1 ZINC000002570895   -0.0800
5      C5      0.0582   -2.7726   -0.0132 C.ar     1 ZINC000002570895   -0.0600
6      C6      0.0676   -4.2518   -0.0214 C.2      1 ZINC000002570895    0.1500
7      C7      0.0759   -5.0559   -1.1264 C.2      1 ZINC000002570895   -0.2000
8      C8      0.0835   -6.3814   -0.6911 C.2      1 ZINC000002570895    0.0000
9      C9      0.0945   -7.5983   -1.5799 C.3      1 ZINC000002570895    0.5600
10     F10     1.4169   -7.9660   -1.8509 F        1 ZINC000002570895   -0.1600
11     F11    -0.5599   -8.6531   -0.9346 F        1 ZINC000002570895   -0.1600
12     F12    -0.5633   -7.3056   -2.7794 F        1 ZINC000002570895   -0.1600
13     N13     0.0800   -6.3920    0.6183 N.2      1 ZINC000002570895   -0.2200
14     N14     0.0755   -5.0675    1.0740 N.pl3    1 ZINC000002570895   -0.3200
15     C15     0.0712   -4.6539    2.4124 C.ar     1 ZINC000002570895    0.2000
16     C16    -0.7989   -3.6552    2.8293 C.ar     1 ZINC000002570895   -0.1300
17     C17    -0.8006   -3.2497    4.1495 C.ar     1 ZINC000002570895    0.0000
18     C18     0.0633   -3.8368    5.0558 C.ar     1 ZINC000002570895   -0.6700
19     S19     0.0580   -3.3166    6.7392 S.o2     1 ZINC000002570895    2.7000
20     N20    -1.0370   -4.2648    7.5419 N.am     1 ZINC000002570895   -1.2500
21     O21     1.3361   -3.6465    7.2652 O.2      1 ZINC000002570895   -0.9600
22     O22    -0.4699   -1.9973    6.7499 O.2      1 ZINC000002570895   -0.9500
23     C23     0.9310   -4.8315    4.6437 C.ar     1 ZINC000002570895    0.0000
24     C24     0.9332   -5.2458    3.3262 C.ar     1 ZINC000002570895   -0.1200
25     C25     0.5729   -2.0748    1.0798 C.ar     1 ZINC000002570895   -0.1000
26     C26     0.5664   -0.6950    1.0788 C.ar     1 ZINC000002570895   -0.1200
27     H27     0.9548    1.8750   -0.4341 H        1 ZINC000002570895    0.0800
28     H28    -0.8202    1.8644   -0.5665 H        1 ZINC000002570895    0.0700
29     H29    -0.0473    1.8605    1.0369 H        1 ZINC000002570895    0.0700
30     H30    -0.8752   -0.1442   -1.9249 H        1 ZINC000002570895    0.1300
31     H31    -0.8653   -2.6038   -1.9477 H        1 ZINC000002570895    0.1300
32     H32     0.0765   -4.7241   -2.1541 H        1 ZINC000002570895    0.1700
33     H33    -1.4733   -3.1959    2.1218 H        1 ZINC000002570895    0.1500
34     H34    -1.4771   -2.4730    4.4744 H        1 ZINC000002570895    0.1600
35     H35    -0.9074   -4.4658    8.4819 H        1 ZINC000002570895    0.4200
36     H36    -1.8079   -4.6194    7.0719 H        1 ZINC000002570895    0.4200
37     H37     1.6047   -5.2879    5.3538 H        1 ZINC000002570895    0.1600
38     H38     1.6108   -6.0230    3.0051 H        1 ZINC000002570895    0.1500
39     H39     0.9790   -2.6134    1.9233 H        1 ZINC000002570895    0.1200
40     H40     0.9648   -0.1537    1.9242 H        1 ZINC000002570895    0.1300
@<TRIPOS>BOND
1     1     2     1
2     1     27    1
3     1     28    1
4     1     29    1
5     2     26    ar
6     2     3     ar
7     3     4     ar
8     3     30    1
9     4     5     ar
10    4     31    1
11    5     6     1
12    5     25    ar
13    6     14    1
14    6     7     2
15    7     8     1
16    7     32    1
17    8     9     1
18    8     13    2
19    9     10    1
20    9     11    1
21    9     12    1
22    13    14    1
23    14    15    1
24    15    24    ar
25    15    16    ar
26    16    17    ar
27    16    33    1
28    17    18    ar
29    17    34    1
30    18    19    1
31    18    23    ar
32    19    20    am
33    19    21    2
34    19    22    2
35    20    35    1
36    20    36    1
37    23    24    ar
38    23    37    1
39    24    38    1
40    25    26    ar
41    25    39    1
42    26    40    1
@<TRIPOS>SUBSTRUCTURE
1   ZINC000002570895 1     RESIDUE    1   A     ZIN   1
