@<TRIPOS>MOLECULE
ZINC000169621223
118   122   1     0     0
SMALL
USER_CHARGES
@<TRIPOS>ATOM
1      C1     -1.1073    1.1741   -0.6607 C.3      1 ZINC000169621223    0.0200
2      O2     -1.0940   -0.2312   -0.4016 O.3      1 ZINC000169621223   -0.3800
3      C3     -0.5485   -1.0145   -1.4678 C.3      1 ZINC000169621223    0.1300
4      H4     -0.7342   -0.5182   -2.4179 H        1 ZINC000169621223    0.0800
5      C5      0.9339   -1.1614   -1.2622 C.2      1 ZINC000169621223   -0.2000
6      C6      1.5529   -0.5614   -0.2636 C.2      1 ZINC000169621223    0.0400
7      O7      2.9048   -0.6831   -0.1454 O.3      1 ZINC000169621223   -0.3100
8      C8      3.4902   -1.9620   -0.1552 C.3      1 ZINC000169621223    0.2400
9      C9      3.9999   -2.3398   -1.5526 C.3      1 ZINC000169621223   -0.1800
10     O10     4.5940   -2.1161    0.7681 O.3      1 ZINC000169621223   -0.2600
11     C11     4.6799   -3.4693    0.9599 C.ar     1 ZINC000169621223    0.1900
12     C12     5.7660   -4.2706    1.2970 C.ar     1 ZINC000169621223   -0.1200
13     C13     7.0991   -3.6266    1.5821 C.3      1 ZINC000169621223   -0.1200
14     C14     5.6771   -5.6450    1.3565 C.ar     1 ZINC000169621223    0.2000
15     O15     6.7900   -6.3508    1.6758 O.3      1 ZINC000169621223   -0.4700
16     C16     4.4639   -6.3204    1.1085 C.ar     1 ZINC000169621223   -0.0900
17     C17     4.3743   -7.7153    0.9328 C.ar     1 ZINC000169621223    0.1300
18     O18     5.5011   -8.4700    0.8794 O.3      1 ZINC000169621223   -0.4600
19     C19     3.1455   -8.3284    0.8169 C.ar     1 ZINC000169621223    0.1700
20     N20     2.9837   -9.6839    0.5243 N.am     1 ZINC000169621223   -0.7200
21     C21     2.2622  -10.0861   -0.5084 C.2      1 ZINC000169621223    0.5800
22     O22     2.6676   -9.7500   -1.6040 O.2      1 ZINC000169621223   -0.4600
23     C23     1.0320  -10.8331   -0.5101 C.2      1 ZINC000169621223   -0.2000
24     C24     0.5888  -11.5685    0.7353 C.3      1 ZINC000169621223   -0.1200
25     C25     0.2270  -10.8986   -1.5906 C.2      1 ZINC000169621223    0.0000
26     C26     0.5307  -10.3903   -2.9063 C.2      1 ZINC000169621223   -0.1300
27     C27    -0.1038   -9.4495   -3.5727 C.2      1 ZINC000169621223   -0.1300
28     C28    -1.2849   -8.6836   -3.0264 C.3      1 ZINC000169621223   -0.0900
29     H29    -1.3094   -8.7810   -1.9480 H        1 ZINC000169621223    0.0800
30     C30    -2.5702   -9.2657   -3.6272 C.3      1 ZINC000169621223   -0.1500
31     C31    -1.1412   -7.2278   -3.4714 C.3      1 ZINC000169621223    0.1100
32     H32    -1.5051   -7.1556   -4.5001 H        1 ZINC000169621223    0.0600
33     O33     0.2423   -6.8691   -3.4391 O.3      1 ZINC000169621223   -0.5600
34     C34    -1.9383   -6.2598   -2.5943 C.3      1 ZINC000169621223   -0.1100
35     H35    -2.9788   -6.5080   -2.6579 H        1 ZINC000169621223    0.0800
36     C36    -1.4478   -6.3897   -1.1473 C.3      1 ZINC000169621223   -0.1200
37     C37    -1.6566   -4.8290   -3.0673 C.3      1 ZINC000169621223    0.1300
38     H38    -0.7493   -4.4801   -2.5766 H        1 ZINC000169621223    0.0700
39     O39    -1.3747   -4.8726   -4.4788 O.3      1 ZINC000169621223   -0.5700
40     C40    -2.7907   -3.8570   -2.8399 C.3      1 ZINC000169621223   -0.1000
41     H41    -3.3280   -3.7689   -3.8194 H        1 ZINC000169621223    0.0800
42     C42    -3.8301   -4.3240   -1.8325 C.3      1 ZINC000169621223   -0.1400
43     C43    -2.3064   -2.4490   -2.5109 C.3      1 ZINC000169621223    0.1000
44     H44    -3.1639   -1.8600   -2.1602 H        1 ZINC000169621223    0.0900
45     O45    -1.8154   -1.8428   -3.7423 O.3      1 ZINC000169621223   -0.3500
46     C46    -2.6844   -1.0982   -4.4437 C.2      1 ZINC000169621223    0.4600
47     C47    -2.2187   -0.3449   -5.6630 C.3      1 ZINC000169621223   -0.1500
48     O48    -3.8401   -1.0319   -4.0975 O.2      1 ZINC000169621223   -0.5100
49     C49    -1.2150   -2.3976   -1.4514 C.3      1 ZINC000169621223   -0.0700
50     H50    -0.4524   -3.1531   -1.6275 H        1 ZINC000169621223    0.1000
51     C51    -1.8211   -2.5988   -0.0565 C.3      1 ZINC000169621223   -0.1200
52     C52     1.9805   -7.5447    1.0209 C.ar     1 ZINC000169621223   -0.0900
53     C53     0.6650   -8.1718    1.2353 C.2      1 ZINC000169621223    0.1200
54     N54    -0.3992   -7.4333    1.3263 N.2      1 ZINC000169621223   -0.1900
55     N55    -1.6297   -8.0156    1.6571 N.pl3    1 ZINC000169621223   -0.5800
56     C56    -2.2102   -9.0812    0.8255 C.3      1 ZINC000169621223    0.0900
57     C57    -2.6004  -10.2500    1.7363 C.3      1 ZINC000169621223   -0.0400
58     N58    -3.4848   -9.7639    2.8029 N.4      1 ZINC000169621223   -0.3800
59     H59    -4.2816   -9.3006    2.3924 H        1 ZINC000169621223    0.4300
60     C60    -3.9448  -10.9010    3.6114 C.3      1 ZINC000169621223   -0.0500
61     C61    -2.7600   -8.8188    3.6617 C.3      1 ZINC000169621223   -0.0300
62     C62    -2.3750   -7.5831    2.8494 C.3      1 ZINC000169621223    0.1400
63     C63     2.0553   -6.1532    1.0219 C.ar     1 ZINC000169621223    0.1800
64     O64     0.9124   -5.4315    1.1281 O.3      1 ZINC000169621223   -0.4400
65     C65     3.2931   -5.5168    0.9867 C.ar     1 ZINC000169621223    0.0100
66     C66     3.4231   -4.0761    0.7653 C.ar     1 ZINC000169621223   -0.2500
67     C67     2.5356   -3.0470    0.3376 C.2      1 ZINC000169621223    0.3700
68     O68     1.3258   -3.0503    0.3606 O.2      1 ZINC000169621223   -0.3600
69     H69    -0.0879    1.5226   -0.8269 H        1 ZINC000169621223    0.0500
70     H70    -1.7089    1.3744   -1.5473 H        1 ZINC000169621223    0.0400
71     H71    -1.5351    1.6972    0.1945 H        1 ZINC000169621223    0.0900
72     H72     1.4959   -1.7623   -1.9618 H        1 ZINC000169621223    0.1200
73     H73     0.9909    0.0394    0.4497 H        1 ZINC000169621223    0.1600
74     H74     4.7400   -1.6093   -1.8793 H        1 ZINC000169621223    0.1000
75     H75     4.4566   -3.3290   -1.5176 H        1 ZINC000169621223    0.0800
76     H76     3.1652   -2.3497   -2.2535 H        1 ZINC000169621223    0.0900
77     H77     7.1699   -3.3928    2.6444 H        1 ZINC000169621223    0.0800
78     H78     7.9003   -4.3125    1.3068 H        1 ZINC000169621223    0.0900
79     H79     7.1909   -2.7088    1.0012 H        1 ZINC000169621223    0.0800
80     H80     6.8995   -6.5047    2.6242 H        1 ZINC000169621223    0.4000
81     H81     5.7966   -8.7970    1.7400 H        1 ZINC000169621223    0.3900
82     H82     3.4236  -10.3517    1.0929 H        1 ZINC000169621223    0.4100
83     H83     0.0356  -10.8874    1.3820 H        1 ZINC000169621223    0.0500
84     H84    -0.0522  -12.4043    0.4549 H        1 ZINC000169621223    0.0800
85     H85     1.4635  -11.9437    1.2664 H        1 ZINC000169621223    0.0800
86     H86    -0.7418  -11.3897   -1.4458 H        1 ZINC000169621223    0.1200
87     H87     1.4062  -10.8371   -3.4232 H        1 ZINC000169621223    0.1300
88     H88     0.2415   -9.1986   -4.5806 H        1 ZINC000169621223    0.1200
89     H89    -2.6541  -10.3180   -3.3555 H        1 ZINC000169621223    0.0600
90     H90    -3.4313   -8.7208   -3.2403 H        1 ZINC000169621223    0.0600
91     H91    -2.5387   -9.1721   -4.7127 H        1 ZINC000169621223    0.0600
92     H92     0.8015   -7.4064   -4.0168 H        1 ZINC000169621223    0.3800
93     H93    -0.3869   -6.1442   -1.0999 H        1 ZINC000169621223    0.0700
94     H94    -2.0080   -5.7046   -0.5109 H        1 ZINC000169621223    0.0600
95     H95    -1.5999   -7.4124   -0.8026 H        1 ZINC000169621223    0.0400
96     H96    -0.6112   -5.4188   -4.7107 H        1 ZINC000169621223    0.3800
97     H97    -3.3598   -4.4504   -0.8574 H        1 ZINC000169621223    0.0700
98     H98    -4.6244   -3.5811   -1.7593 H        1 ZINC000169621223    0.0600
99     H99    -4.2509   -5.2749   -2.1590 H        1 ZINC000169621223    0.0600
100    H100   -1.1548   -0.5249   -5.8169 H        1 ZINC000169621223    0.0900
101    H101   -2.7751   -0.6867   -6.5358 H        1 ZINC000169621223    0.1100
102    H102   -2.3895    0.7219   -5.5182 H        1 ZINC000169621223    0.1000
103    H103   -2.1850   -3.6220    0.0373 H        1 ZINC000169621223    0.0500
104    H104   -1.0594   -2.4132    0.7008 H        1 ZINC000169621223    0.0700
105    H105   -2.6494   -1.9043    0.0834 H        1 ZINC000169621223    0.0600
106    H106    0.5856   -9.2458    1.3168 H        1 ZINC000169621223    0.1200
107    H107   -3.0956   -8.7047    0.3132 H        1 ZINC000169621223    0.0900
108    H108   -1.4750   -9.4166    0.0940 H        1 ZINC000169621223    0.1100
109    H109   -3.1197  -11.0090    1.1513 H        1 ZINC000169621223    0.1400
110    H110   -1.7024  -10.6824    2.1776 H        1 ZINC000169621223    0.1300
111    H111   -3.0847  -11.4044    4.0528 H        1 ZINC000169621223    0.1200
112    H112   -4.6014  -10.5415    4.4036 H        1 ZINC000169621223    0.1300
113    H113   -4.4895  -11.6007    2.9775 H        1 ZINC000169621223    0.1200
114    H114   -3.3969   -8.5232    4.4954 H        1 ZINC000169621223    0.1400
115    H115   -1.8572   -9.2945    4.0447 H        1 ZINC000169621223    0.1300
116    H116   -1.7506   -6.9264    3.4553 H        1 ZINC000169621223    0.1200
117    H117   -3.2757   -7.0533    2.5393 H        1 ZINC000169621223    0.0900
118    H118    0.6595   -5.2270    2.0387 H        1 ZINC000169621223    0.3900
@<TRIPOS>BOND
1     1     2     1
2     1     69    1
3     1     70    1
4     1     71    1
5     2     3     1
6     3     4     1
7     3     49    1
8     3     5     1
9     5     6     2
10    5     72    1
11    6     7     1
12    6     73    1
13    7     8     1
14    8     67    1
15    8     9     1
16    8     10    1
17    9     74    1
18    9     75    1
19    9     76    1
20    10    11    1
21    11    66    ar
22    11    12    ar
23    12    13    1
24    12    14    ar
25    13    77    1
26    13    78    1
27    13    79    1
28    14    15    1
29    14    16    ar
30    15    80    1
31    16    65    ar
32    16    17    ar
33    17    18    1
34    17    19    ar
35    18    81    1
36    19    20    1
37    19    52    ar
38    20    21    am
39    20    82    1
40    21    22    2
41    21    23    1
42    23    24    1
43    23    25    2
44    24    83    1
45    24    84    1
46    24    85    1
47    25    26    1
48    25    86    1
49    26    27    2
50    26    87    1
51    27    28    1
52    27    88    1
53    28    29    1
54    28    30    1
55    28    31    1
56    30    89    1
57    30    90    1
58    30    91    1
59    31    32    1
60    31    33    1
61    31    34    1
62    33    92    1
63    34    35    1
64    34    36    1
65    34    37    1
66    36    93    1
67    36    94    1
68    36    95    1
69    37    38    1
70    37    39    1
71    37    40    1
72    39    96    1
73    40    41    1
74    40    42    1
75    40    43    1
76    42    97    1
77    42    98    1
78    42    99    1
79    43    44    1
80    43    45    1
81    43    49    1
82    45    46    1
83    46    47    1
84    46    48    2
85    47    100   1
86    47    101   1
87    47    102   1
88    49    50    1
89    49    51    1
90    51    103   1
91    51    104   1
92    51    105   1
93    52    53    1
94    52    63    ar
95    53    54    2
96    53    106   1
97    54    55    1
98    55    62    1
99    55    56    1
100   56    57    1
101   56    107   1
102   56    108   1
103   57    58    1
104   57    109   1
105   57    110   1
106   58    59    1
107   58    60    1
108   58    61    1
109   60    111   1
110   60    112   1
111   60    113   1
112   61    62    1
113   61    114   1
114   61    115   1
115   62    116   1
116   62    117   1
117   63    64    1
118   63    65    ar
119   64    118   1
120   65    66    ar
121   66    67    1
122   67    68    2
@<TRIPOS>SUBSTRUCTURE
1   ZINC000169621223 1     RESIDUE    1   A     ZIN   1
