@<TRIPOS>MOLECULE
ZINC000008034120
9    8    0    0    0
SMALL
NO_CHARGES


@<TRIPOS>ATOM
1 N1            -0.0162     1.3436     0.0094 N.am
2 C2             0.0021    -0.0041     0.0020 C.2
3 O3             1.0631    -0.5976    -0.0113 O.2
4 N4            -1.1558    -0.6938     0.0094 N.am
5 O5            -1.1366    -2.1096     0.0016 O.3
6 H6             0.8172     1.8399     0.0041 H
7 H7            -0.8627     1.8171     0.0160 H
8 H8            -2.0023    -0.2203     0.0200 H
9 H9            -2.0146    -2.5149     0.0078 H
@<TRIPOS>BOND
1    1    2 am
2    1    6 1
3    1    7 1
4    2    3 2
5    2    4 am
6    4    5 1
7    4    8 1
8    5    9 1


