@<TRIPOS>MOLECULE
ZINC000000057313
41    43    1     0     0
SMALL
USER_CHARGES
@<TRIPOS>ATOM
1      C1     -0.1384    2.5574   -0.4166 C.3      1 ZINC000000057313   -0.1500
2      C2      0.1972    1.0684   -0.3106 C.3      1 ZINC000000057313   -0.0800
3      C3     -1.0767    0.2746   -0.1762 C.ar     1 ZINC000000057313   -0.0900
4      C4     -1.7822   -0.1078   -1.3114 C.ar     1 ZINC000000057313    0.1000
5      N5     -1.5776    0.0833   -2.6617 N.pl3    1 ZINC000000057313   -0.5700
6      C6     -2.5821   -0.5051   -3.3710 C.2      1 ZINC000000057313    0.0800
7      C7     -3.4558   -1.0855   -2.5217 C.2      1 ZINC000000057313   -0.1800
8      C8     -4.6880   -1.8259   -2.9753 C.3      1 ZINC000000057313   -0.0700
9      C9     -4.9440   -1.4538   -4.4434 C.3      1 ZINC000000057313    0.0500
10     O10    -3.7230   -1.5574   -5.1808 O.3      1 ZINC000000057313   -0.3300
11     C11    -2.7571   -0.5446   -4.8718 C.3      1 ZINC000000057313    0.2100
12     C12    -1.4221   -0.8833   -5.5383 C.3      1 ZINC000000057313   -0.1100
13     C13    -0.9242   -2.2357   -5.0246 C.3      1 ZINC000000057313   -0.1400
14     C14    -3.2548    0.8134   -5.3707 C.3      1 ZINC000000057313   -0.2100
15     C15    -3.5241    0.7367   -6.8514 C.2      1 ZINC000000057313    0.5000
16     O16    -3.4486   -0.3338   -7.4301 O.co2    1 ZINC000000057313   -0.6700
17     O17    -3.8174    1.7451   -7.4708 O.co2    1 ZINC000000057313   -0.7100
18     C18    -2.9719   -0.8503   -1.1686 C.ar     1 ZINC000000057313   -0.0900
19     C19    -3.4258   -1.1918    0.1072 C.ar     1 ZINC000000057313   -0.0800
20     C20    -2.7157   -0.8058    1.2086 C.ar     1 ZINC000000057313   -0.1500
21     C21    -1.5416   -0.0785    1.0718 C.ar     1 ZINC000000057313   -0.1100
22     H22     0.7830    3.1315   -0.5138 H        1 ZINC000000057313    0.0600
23     H23    -0.7662    2.7269   -1.2914 H        1 ZINC000000057313    0.0500
24     H24    -0.6712    2.8744    0.4799 H        1 ZINC000000057313    0.0600
25     H25     0.7300    0.7513   -1.2071 H        1 ZINC000000057313    0.0600
26     H26     0.8250    0.8988    0.5642 H        1 ZINC000000057313    0.0700
27     H27    -0.8301    0.5651   -3.0492 H        1 ZINC000000057313    0.4100
28     H28    -4.5257   -2.9004   -2.8895 H        1 ZINC000000057313    0.0700
29     H29    -5.5417   -1.5308   -2.3652 H        1 ZINC000000057313    0.0700
30     H30    -5.6832   -2.1337   -4.8670 H        1 ZINC000000057313    0.0900
31     H31    -5.3167   -0.4311   -4.4993 H        1 ZINC000000057313    0.0500
32     H32    -1.5576   -0.9325   -6.6187 H        1 ZINC000000057313    0.1100
33     H33    -0.6903   -0.1118   -5.2986 H        1 ZINC000000057313    0.0500
34     H34     0.0440   -2.4602   -5.4720 H        1 ZINC000000057313    0.0500
35     H35    -0.8232   -2.1976   -3.9399 H        1 ZINC000000057313    0.0400
36     H36    -1.6388   -3.0128   -5.2958 H        1 ZINC000000057313    0.0600
37     H37    -4.1736    1.0782   -4.8475 H        1 ZINC000000057313    0.0600
38     H38    -2.4957    1.5716   -5.1782 H        1 ZINC000000057313    0.0600
39     H39    -4.3370   -1.7599    0.2230 H        1 ZINC000000057313    0.1200
40     H40    -3.0693   -1.0716    2.1939 H        1 ZINC000000057313    0.1200
41     H41    -0.9909    0.2191    1.9519 H        1 ZINC000000057313    0.1200
@<TRIPOS>BOND
1     1     2     1
2     1     22    1
3     1     23    1
4     1     24    1
5     2     3     1
6     2     25    1
7     2     26    1
8     3     21    ar
9     3     4     ar
10    4     18    ar
11    4     5     1
12    5     6     1
13    5     27    1
14    6     11    1
15    6     7     2
16    7     8     1
17    7     18    1
18    8     9     1
19    8     28    1
20    8     29    1
21    9     10    1
22    9     30    1
23    9     31    1
24    10    11    1
25    11    12    1
26    11    14    1
27    12    13    1
28    12    32    1
29    12    33    1
30    13    34    1
31    13    35    1
32    13    36    1
33    14    15    1
34    14    37    1
35    14    38    1
36    15    16    ar
37    15    17    ar
38    18    19    ar
39    19    20    ar
40    19    39    1
41    20    21    ar
42    20    40    1
43    21    41    1
@<TRIPOS>SUBSTRUCTURE
1   ZINC000000057313 1     RESIDUE    1   A     ZIN   1
