@<TRIPOS>MOLECULE
ZINC000000007673
36    36    1     0     0
SMALL
USER_CHARGES
@<TRIPOS>ATOM
1      C1     -0.0173    1.4248    0.0099 C.3      1 ZINC000000007673    0.0300
2      O2      0.0021   -0.0041    0.0020 O.3      1 ZINC000000007673   -0.3800
3      C3     -1.2953   -0.6030    0.0112 C.3      1 ZINC000000007673    0.0500
4      C4     -1.1538   -2.1264    0.0017 C.3      1 ZINC000000007673    0.1300
5      H5     -2.1387   -2.5834    0.0982 H        1 ZINC000000007673    0.1300
6      N6     -0.5394   -2.5519   -1.2584 N.am     1 ZINC000000007673   -0.7100
7      C7     -1.3057   -2.7455   -2.3501 C.2      1 ZINC000000007673    0.5200
8      C8     -0.6736   -3.1832   -3.6463 C.3      1 ZINC000000007673   -0.1700
9      O9     -2.5038   -2.5675   -2.2894 O.2      1 ZINC000000007673   -0.5500
10     C10    -0.2849   -2.5574    1.1550 C.2      1 ZINC000000007673    0.5200
11     O11     0.7461   -3.1607    0.9451 O.2      1 ZINC000000007673   -0.5300
12     N12    -0.6534   -2.2726    2.4197 N.am     1 ZINC000000007673   -0.7200
13     C13     0.1913   -2.6916    3.5409 C.3      1 ZINC000000007673    0.1600
14     C14    -0.4407   -2.2539    4.8370 C.ar     1 ZINC000000007673   -0.1100
15     C15    -0.1403   -1.0135    5.3682 C.ar     1 ZINC000000007673   -0.1000
16     C16    -0.7200   -0.6120    6.5572 C.ar     1 ZINC000000007673   -0.1200
17     C17    -1.6005   -1.4507    7.2147 C.ar     1 ZINC000000007673   -0.1100
18     C18    -1.9016   -2.6907    6.6830 C.ar     1 ZINC000000007673   -0.1200
19     C19    -1.3252   -3.0904    5.4918 C.ar     1 ZINC000000007673   -0.1000
20     H20     1.0053    1.8021    0.0021 H        1 ZINC000000007673    0.0900
21     H21    -0.5445    1.7859   -0.8732 H        1 ZINC000000007673    0.0400
22     H22    -0.5275    1.7763    0.9067 H        1 ZINC000000007673    0.0400
23     H23    -1.8320   -0.2936    0.9080 H        1 ZINC000000007673    0.0600
24     H24    -1.8490   -0.2840   -0.8718 H        1 ZINC000000007673    0.0700
25     H25     0.4188   -2.6943   -1.3069 H        1 ZINC000000007673    0.4200
26     H26    -0.1744   -4.1413   -3.5017 H        1 ZINC000000007673    0.0900
27     H27    -1.4447   -3.2869   -4.4097 H        1 ZINC000000007673    0.0900
28     H28     0.0553   -2.4381   -3.9649 H        1 ZINC000000007673    0.0900
29     H29    -1.4780   -1.7901    2.5875 H        1 ZINC000000007673    0.4000
30     H30     0.2921   -3.7769    3.5341 H        1 ZINC000000007673    0.0800
31     H31     1.1762   -2.2346    3.4443 H        1 ZINC000000007673    0.0800
32     H32     0.5476   -0.3583    4.8546 H        1 ZINC000000007673    0.1200
33     H33    -0.4848    0.3567    6.9726 H        1 ZINC000000007673    0.1300
34     H34    -2.0529   -1.1373    8.1439 H        1 ZINC000000007673    0.1200
35     H35    -2.5893   -3.3460    7.1968 H        1 ZINC000000007673    0.1300
36     H36    -1.5604   -4.0592    5.0764 H        1 ZINC000000007673    0.1200
@<TRIPOS>BOND
1     1     2     1
2     1     20    1
3     1     21    1
4     1     22    1
5     2     3     1
6     3     4     1
7     3     23    1
8     3     24    1
9     4     5     1
10    4     6     1
11    4     10    1
12    6     7     am
13    6     25    1
14    7     8     1
15    7     9     2
16    8     26    1
17    8     27    1
18    8     28    1
19    10    11    2
20    10    12    am
21    12    13    1
22    12    29    1
23    13    14    1
24    13    30    1
25    13    31    1
26    14    19    ar
27    14    15    ar
28    15    16    ar
29    15    32    1
30    16    17    ar
31    16    33    1
32    17    18    ar
33    17    34    1
34    18    19    ar
35    18    35    1
36    19    36    1
@<TRIPOS>SUBSTRUCTURE
1   ZINC000000007673 1     RESIDUE    1   A     ZIN   1
