@<TRIPOS>MOLECULE
ZINC000001552908
68    69    1     0     0
SMALL
USER_CHARGES
@<TRIPOS>ATOM
1      C1     -1.1209    0.0471   -2.4332 C.3      1 ZINC000001552908   -0.1500
2      C2     -1.3598    0.3595   -0.9546 C.3      1 ZINC000001552908   -0.0900
3      C3     -0.9692    1.8112   -0.6705 C.3      1 ZINC000001552908   -0.1400
4      C4     -2.8172    0.1583   -0.6278 C.2      1 ZINC000001552908    0.4600
5      O5     -3.4757    1.0813   -0.2105 O.2      1 ZINC000001552908   -0.4900
6      O6     -3.3837   -1.0467   -0.8004 O.3      1 ZINC000001552908   -0.2900
7      C7     -4.6712   -1.1880   -0.3880 C.ar     1 ZINC000001552908    0.1000
8      C8     -4.9443   -1.6642    0.8858 C.ar     1 ZINC000001552908   -0.1200
9      C9     -6.2539   -1.8065    1.3028 C.ar     1 ZINC000001552908   -0.0800
10     C10    -7.2915   -1.4752    0.4514 C.ar     1 ZINC000001552908   -0.0800
11     C11    -8.7189   -1.6318    0.9086 C.3      1 ZINC000001552908    0.1100
12     O12    -9.1565   -0.4204    1.5274 O.3      1 ZINC000001552908   -0.5700
13     C13    -7.0217   -0.9998   -0.8189 C.ar     1 ZINC000001552908   -0.0800
14     C14    -5.7143   -0.8507   -1.2386 C.ar     1 ZINC000001552908   -0.0900
15     C15    -5.4211   -0.3326   -2.6230 C.3      1 ZINC000001552908    0.0100
16     H16    -4.3460   -0.1954   -2.7394 H        1 ZINC000001552908    0.0900
17     C17    -6.1313    1.0071   -2.8272 C.3      1 ZINC000001552908   -0.1400
18     C18    -5.7345    1.5931   -4.1837 C.3      1 ZINC000001552908   -0.0200
19     N19    -6.3277    2.9288   -4.3325 N.4      1 ZINC000001552908   -0.3800
20     H20    -7.3263    2.8698   -4.2008 H        1 ZINC000001552908    0.4200
21     C21    -5.7540    3.8340   -3.3278 C.3      1 ZINC000001552908    0.0100
22     C22    -4.4441    4.4203   -3.8584 C.3      1 ZINC000001552908   -0.1800
23     C23    -6.7405    4.9676   -3.0401 C.3      1 ZINC000001552908   -0.2000
24     C24    -6.0407    3.4450   -5.6775 C.3      1 ZINC000001552908    0.0200
25     C25    -6.5318    2.4426   -6.7240 C.3      1 ZINC000001552908   -0.1800
26     C26    -6.7589    4.7814   -5.8748 C.3      1 ZINC000001552908   -0.1900
27     C27    -5.9146   -1.3238   -3.6453 C.ar     1 ZINC000001552908   -0.0900
28     C28    -7.2715   -1.5332   -3.8061 C.ar     1 ZINC000001552908   -0.1200
29     C29    -7.7242   -2.4424   -4.7438 C.ar     1 ZINC000001552908   -0.1100
30     C30    -6.8200   -3.1418   -5.5210 C.ar     1 ZINC000001552908   -0.1100
31     C31    -5.4631   -2.9318   -5.3609 C.ar     1 ZINC000001552908   -0.1100
32     C32    -5.0105   -2.0194   -4.4261 C.ar     1 ZINC000001552908   -0.1100
33     H33    -0.0668    0.1926   -2.6695 H        1 ZINC000001552908    0.0800
34     H34    -1.3992   -0.9872   -2.6356 H        1 ZINC000001552908    0.0700
35     H35    -1.7264    0.7132   -3.0478 H        1 ZINC000001552908    0.0600
36     H36    -0.7543   -0.3067   -0.3400 H        1 ZINC000001552908    0.1200
37     H37    -1.5747    2.4774   -1.2851 H        1 ZINC000001552908    0.0600
38     H38    -1.1394    2.0338    0.3829 H        1 ZINC000001552908    0.0700
39     H39     0.0849    1.9567   -0.9068 H        1 ZINC000001552908    0.0800
40     H40    -4.1341   -1.9238    1.5510 H        1 ZINC000001552908    0.1400
41     H41    -6.4671   -2.1772    2.2945 H        1 ZINC000001552908    0.1400
42     H42    -9.3534   -1.8510    0.0499 H        1 ZINC000001552908    0.0600
43     H43    -8.7829   -2.4500    1.6260 H        1 ZINC000001552908    0.0600
44     H44   -10.0688   -0.4491    1.8467 H        1 ZINC000001552908    0.3900
45     H45    -7.8341   -0.7416   -1.4821 H        1 ZINC000001552908    0.1300
46     H46    -7.2102    0.8543   -2.7990 H        1 ZINC000001552908    0.0900
47     H47    -5.8411    1.6967   -2.0346 H        1 ZINC000001552908    0.1000
48     H48    -4.6488    1.6691   -4.2431 H        1 ZINC000001552908    0.1300
49     H49    -6.0974    0.9436   -4.9803 H        1 ZINC000001552908    0.1400
50     H50    -5.5586    3.2805   -2.4094 H        1 ZINC000001552908    0.1400
51     H51    -4.6520    5.0504   -4.7232 H        1 ZINC000001552908    0.0900
52     H52    -3.9713    5.0177   -3.0788 H        1 ZINC000001552908    0.1000
53     H53    -3.7758    3.6104   -4.1511 H        1 ZINC000001552908    0.0800
54     H54    -7.6343    4.5602   -2.5677 H        1 ZINC000001552908    0.0800
55     H55    -6.2755    5.6933   -2.3729 H        1 ZINC000001552908    0.1000
56     H56    -7.0144    5.4568   -3.9749 H        1 ZINC000001552908    0.1000
57     H57    -4.9662    3.5899   -5.7894 H        1 ZINC000001552908    0.1400
58     H58    -7.6063    2.2977   -6.6120 H        1 ZINC000001552908    0.0800
59     H59    -6.3189    2.8257   -7.7220 H        1 ZINC000001552908    0.1000
60     H60    -6.0201    1.4905   -6.5834 H        1 ZINC000001552908    0.0800
61     H61    -6.2764    5.5465   -5.2665 H        1 ZINC000001552908    0.0900
62     H62    -6.7103    5.0684   -6.9253 H        1 ZINC000001552908    0.1000
63     H63    -7.8016    4.6816   -5.5733 H        1 ZINC000001552908    0.0800
64     H64    -7.9779   -0.9867   -3.1989 H        1 ZINC000001552908    0.1200
65     H65    -8.7842   -2.6065   -4.8690 H        1 ZINC000001552908    0.1300
66     H66    -7.1736   -3.8527   -6.2532 H        1 ZINC000001552908    0.1300
67     H67    -4.7566   -3.4785   -5.9679 H        1 ZINC000001552908    0.1300
68     H68    -3.9504   -1.8553   -4.3010 H        1 ZINC000001552908    0.1200
@<TRIPOS>BOND
1     1     2     1
2     1     33    1
3     1     34    1
4     1     35    1
5     2     3     1
6     2     4     1
7     2     36    1
8     3     37    1
9     3     38    1
10    3     39    1
11    4     5     2
12    4     6     1
13    6     7     1
14    7     14    ar
15    7     8     ar
16    8     9     ar
17    8     40    1
18    9     10    ar
19    9     41    1
20    10    11    1
21    10    13    ar
22    11    12    1
23    11    42    1
24    11    43    1
25    12    44    1
26    13    14    ar
27    13    45    1
28    14    15    1
29    15    16    1
30    15    17    1
31    15    27    1
32    17    18    1
33    17    46    1
34    17    47    1
35    18    19    1
36    18    48    1
37    18    49    1
38    19    20    1
39    19    21    1
40    19    24    1
41    21    22    1
42    21    23    1
43    21    50    1
44    22    51    1
45    22    52    1
46    22    53    1
47    23    54    1
48    23    55    1
49    23    56    1
50    24    25    1
51    24    26    1
52    24    57    1
53    25    58    1
54    25    59    1
55    25    60    1
56    26    61    1
57    26    62    1
58    26    63    1
59    27    32    ar
60    27    28    ar
61    28    29    ar
62    28    64    1
63    29    30    ar
64    29    65    1
65    30    31    ar
66    30    66    1
67    31    32    ar
68    31    67    1
69    32    68    1
@<TRIPOS>SUBSTRUCTURE
1   ZINC000001552908 1     RESIDUE    1   A     ZIN   1
