@<TRIPOS>MOLECULE
ZINC000003830441
51    54    1     0     0
SMALL
USER_CHARGES
@<TRIPOS>ATOM
1      C1     -0.1621    1.6247   -0.0355 C.3      1 ZINC000003830441    0.0200
2      O2     -0.2577    0.1995   -0.0740 O.3      1 ZINC000003830441   -0.3500
3      C3      0.4676   -0.4029   -1.1478 C.3      1 ZINC000003830441    0.3300
4      N4      0.2959    0.3048   -2.4190 N.am     1 ZINC000003830441   -0.7200
5      C5      1.0627   -0.0183   -3.4791 C.2      1 ZINC000003830441    0.5500
6      O6      1.8950   -0.8950   -3.3808 O.2      1 ZINC000003830441   -0.4400
7      C7      0.8861    0.7098   -4.7867 C.3      1 ZINC000003830441   -0.1900
8      S8      1.0672    2.5091   -4.6396 S.3      1 ZINC000003830441    0.0600
9      C9      2.4648    2.3988   -5.6311 C.2      1 ZINC000003830441   -0.1200
10     C10     3.3656    3.3621   -6.1122 C.2      1 ZINC000003830441   -0.1700
11     C11     4.4886    2.9559   -6.9573 C.2      1 ZINC000003830441    0.5700
12     N12     5.2886    3.8894   -7.5096 N.am     1 ZINC000003830441   -0.8400
13     O13     4.7005    1.7746   -7.1617 O.2      1 ZINC000003830441   -0.5700
14     C14     3.1879    4.7222   -5.7806 C.2      1 ZINC000003830441    0.5300
15     O15     2.3135    5.0503   -4.9867 O.co2    1 ZINC000003830441   -0.6600
16     O16     3.9079    5.5755   -6.2864 O.co2    1 ZINC000003830441   -0.6800
17     S17     2.3731    0.6953   -5.8260 S.3      1 ZINC000003830441    0.0800
18     C18     1.9167   -0.7087   -0.8089 C.2      1 ZINC000003830441    0.5400
19     O19     2.8503   -0.0477   -0.4054 O.2      1 ZINC000003830441   -0.4500
20     N20     1.7529   -2.0028   -1.1333 N.am     1 ZINC000003830441   -0.5400
21     C21     2.5500   -3.1118   -1.4658 C.2      1 ZINC000003830441    0.1900
22     C22     3.9089   -3.2343   -0.9138 C.2      1 ZINC000003830441    0.5300
23     O23     4.8689   -2.8320   -1.5567 O.co2    1 ZINC000003830441   -0.6500
24     O24     4.0784   -3.7384    0.1880 O.co2    1 ZINC000003830441   -0.6600
25     C25     2.0765   -4.0474   -2.2779 C.2      1 ZINC000003830441   -0.2300
26     C26     3.0287   -5.1649   -2.6180 C.3      1 ZINC000003830441   -0.0300
27     S27     2.6049   -6.6343   -1.6499 S.3      1 ZINC000003830441    0.0200
28     C28     3.8398   -7.7494   -2.2297 C.2      1 ZINC000003830441    0.2300
29     N29     4.7735   -7.4881   -3.1187 N.2      1 ZINC000003830441   -0.3300
30     N30     5.5101   -8.5217   -3.3143 N.2      1 ZINC000003830441   -0.0300
31     N31     5.1105   -9.5023   -2.5793 N.2      1 ZINC000003830441   -0.1000
32     N32     4.0100   -9.0348   -1.8398 N.pl3    1 ZINC000003830441   -0.3800
33     C33     3.2127   -9.7812   -0.8634 C.3      1 ZINC000003830441    0.0900
34     C34     0.7210   -4.1362   -2.8982 C.3      1 ZINC000003830441   -0.0100
35     S35    -0.1310   -2.5296   -2.9239 S.3      1 ZINC000003830441   -0.2100
36     C36     0.2635   -1.9107   -1.2544 C.3      1 ZINC000003830441    0.1300
37     H37    -0.3121   -2.3734   -0.4527 H        1 ZINC000003830441    0.1500
38     H38     0.8821    1.9159    0.0784 H        1 ZINC000003830441    0.0600
39     H39    -0.5562    2.0405   -0.9629 H        1 ZINC000003830441    0.0500
40     H40    -0.7394    2.0050    0.8072 H        1 ZINC000003830441    0.1000
41     H41    -0.3698    1.0060   -2.4976 H        1 ZINC000003830441    0.4100
42     H42    -0.0162    0.4069   -5.3180 H        1 ZINC000003830441    0.1700
43     H43     5.1661    4.8257   -7.2879 H        1 ZINC000003830441    0.4200
44     H44     5.9868    3.6250   -8.1288 H        1 ZINC000003830441    0.3800
45     H45     2.9534   -5.3957   -3.6806 H        1 ZINC000003830441    0.1000
46     H46     4.0480   -4.8574   -2.3843 H        1 ZINC000003830441    0.1200
47     H47     3.6485   -9.6621    0.1286 H        1 ZINC000003830441    0.0900
48     H48     2.1918   -9.3992   -0.8600 H        1 ZINC000003830441    0.1000
49     H49     3.2046  -10.8374   -1.1323 H        1 ZINC000003830441    0.1000
50     H50     0.8234   -4.4985   -3.9211 H        1 ZINC000003830441    0.1100
51     H51     0.1189   -4.8467   -2.3319 H        1 ZINC000003830441    0.0900
@<TRIPOS>BOND
1     1     2     1
2     1     38    1
3     1     39    1
4     1     40    1
5     2     3     1
6     3     36    1
7     3     4     1
8     3     18    1
9     4     5     am
10    4     41    1
11    5     6     2
12    5     7     1
13    7     17    1
14    7     8     1
15    7     42    1
16    8     9     1
17    9     10    2
18    9     17    1
19    10    11    1
20    10    14    1
21    11    12    am
22    11    13    2
23    12    43    1
24    12    44    1
25    14    15    ar
26    14    16    ar
27    18    19    2
28    18    20    am
29    20    36    1
30    20    21    1
31    21    22    1
32    21    25    2
33    22    23    ar
34    22    24    ar
35    25    26    1
36    25    34    1
37    26    27    1
38    26    45    1
39    26    46    1
40    27    28    1
41    28    32    1
42    28    29    2
43    29    30    1
44    30    31    2
45    31    32    1
46    32    33    1
47    33    47    1
48    33    48    1
49    33    49    1
50    34    35    1
51    34    50    1
52    34    51    1
53    35    36    1
54    36    37    1
@<TRIPOS>SUBSTRUCTURE
1   ZINC000003830441 1     RESIDUE    1   A     ZIN   1
