@<TRIPOS>MOLECULE
ZINC000003978005
80    87    1     0     0
SMALL
USER_CHARGES
@<TRIPOS>ATOM
1      C1      1.4945   -2.9320    0.6811 C.3      1 ZINC000003978005    0.0200
2      N2      0.8681   -2.3729   -0.5243 N.3      1 ZINC000003978005   -0.5400
3      C3     -0.5103   -2.8560   -0.6733 C.3      1 ZINC000003978005    0.0600
4      C4     -1.1765   -2.1394   -1.8502 C.3      1 ZINC000003978005   -0.1000
5      H5     -1.1942   -1.0662   -1.6603 H        1 ZINC000003978005    0.1100
6      C6     -2.5867   -2.6448   -2.0145 C.2      1 ZINC000003978005    0.5300
7      O7     -2.9455   -3.1065   -3.0770 O.2      1 ZINC000003978005   -0.5000
8      N8     -3.4492   -2.5838   -0.9806 N.am     1 ZINC000003978005   -0.7400
9      C9     -4.7834   -3.1760   -1.1037 C.3      1 ZINC000003978005    0.3000
10     C10    -4.6830   -4.7015   -1.1660 C.3      1 ZINC000003978005   -0.1400
11     O11    -5.4501   -2.6682   -2.2759 O.3      1 ZINC000003978005   -0.3200
12     C12    -6.1850   -1.5305   -1.7986 C.3      1 ZINC000003978005    0.4700
13     O13    -5.3882   -0.3530   -1.9425 O.3      1 ZINC000003978005   -0.5400
14     C14    -7.4671   -1.3519   -2.5866 C.3      1 ZINC000003978005    0.1500
15     H15    -7.8170   -2.3180   -2.9503 H        1 ZINC000003978005    0.1100
16     C16    -7.2499   -0.3887   -3.7752 C.3      1 ZINC000003978005   -0.1200
17     C17    -8.6817    0.1244   -4.0621 C.3      1 ZINC000003978005   -0.1300
18     C18    -9.4618   -0.1158   -2.7546 C.3      1 ZINC000003978005    0.1000
19     N19    -8.5163   -0.7091   -1.7828 N.am     1 ZINC000003978005   -0.6100
20     C20    -8.6054   -0.6322   -0.4483 C.2      1 ZINC000003978005    0.5300
21     O21    -9.6144   -0.1870    0.0563 O.2      1 ZINC000003978005   -0.5200
22     C22    -7.4762   -1.0886    0.4363 C.3      1 ZINC000003978005    0.1700
23     H23    -7.8641   -1.7560    1.2058 H        1 ZINC000003978005    0.1300
24     C24    -6.8222    0.1266    1.0969 C.3      1 ZINC000003978005   -0.0900
25     C25    -5.7770   -0.3371    2.0785 C.ar     1 ZINC000003978005   -0.0800
26     C26    -6.1446   -0.6951    3.3621 C.ar     1 ZINC000003978005   -0.1000
27     C27    -5.1859   -1.1205    4.2624 C.ar     1 ZINC000003978005   -0.1100
28     C28    -3.8595   -1.1883    3.8791 C.ar     1 ZINC000003978005   -0.1100
29     C29    -3.4919   -0.8312    2.5952 C.ar     1 ZINC000003978005   -0.1200
30     C30    -4.4513   -0.4099    1.6936 C.ar     1 ZINC000003978005   -0.1200
31     N31    -6.4632   -1.7622   -0.3802 N.am     1 ZINC000003978005   -0.6400
32     C32    -5.6554   -2.7537    0.0593 C.2      1 ZINC000003978005    0.5000
33     O33    -5.6504   -3.2356    1.1722 O.2      1 ZINC000003978005   -0.4500
34     C34    -0.3795   -2.4199   -3.1268 C.3      1 ZINC000003978005   -0.0900
35     C35     1.0670   -1.9564   -2.9313 C.3      1 ZINC000003978005   -0.0300
36     H36     1.0783   -0.8805   -2.7574 H        1 ZINC000003978005    0.1000
37     C37     1.8653   -2.2655   -4.1613 C.ar     1 ZINC000003978005   -0.0200
38     C38     3.2235   -2.5308   -3.9704 C.ar     1 ZINC000003978005   -0.1400
39     C39     3.9174   -2.5474   -2.6825 C.2      1 ZINC000003978005   -0.1700
40     C40     5.1790   -2.8348   -2.9632 C.2      1 ZINC000003978005    0.0600
41     N41     5.3400   -3.0070   -4.3300 N.pl3    1 ZINC000003978005   -0.6000
42     C42     4.1522   -2.8322   -4.9733 C.ar     1 ZINC000003978005    0.1100
43     C43     3.6828   -2.8801   -6.2849 C.ar     1 ZINC000003978005   -0.1300
44     C44     2.3323   -2.6213   -6.4768 C.ar     1 ZINC000003978005   -0.0900
45     C45     1.4382   -2.3207   -5.4501 C.ar     1 ZINC000003978005   -0.1400
46     C46     3.1238   -2.2687   -1.4312 C.3      1 ZINC000003978005   -0.0300
47     C47     1.6694   -2.6684   -1.7192 C.3      1 ZINC000003978005    0.1000
48     H48     1.6363   -3.7451   -1.8859 H        1 ZINC000003978005    0.0400
49     H49     2.4864   -2.4986    0.8094 H        1 ZINC000003978005    0.0800
50     H50     0.8807   -2.6986    1.5511 H        1 ZINC000003978005    0.0700
51     H51     1.5813   -4.0135    0.5772 H        1 ZINC000003978005    0.0300
52     H52    -0.5008   -3.9299   -0.8599 H        1 ZINC000003978005    0.0400
53     H53    -1.0681   -2.6506    0.2403 H        1 ZINC000003978005    0.0800
54     H54    -3.1864   -2.1477   -0.1549 H        1 ZINC000003978005    0.4100
55     H55    -4.2230   -5.0730   -0.2503 H        1 ZINC000003978005    0.0900
56     H56    -5.6809   -5.1274   -1.2699 H        1 ZINC000003978005    0.0800
57     H57    -4.0735   -4.9908   -2.0221 H        1 ZINC000003978005    0.0900
58     H58    -4.5499   -0.3842   -1.4615 H        1 ZINC000003978005    0.3800
59     H59    -6.5941    0.4343   -3.4909 H        1 ZINC000003978005    0.1000
60     H60    -6.8505   -0.9226   -4.6374 H        1 ZINC000003978005    0.0900
61     H61    -8.6621    1.1876   -4.3016 H        1 ZINC000003978005    0.0800
62     H62    -9.1297   -0.4405   -4.8796 H        1 ZINC000003978005    0.0800
63     H63    -9.8505    0.8288   -2.3743 H        1 ZINC000003978005    0.0900
64     H64   -10.2818   -0.8114   -2.9329 H        1 ZINC000003978005    0.0800
65     H65    -6.3535    0.7471    0.3331 H        1 ZINC000003978005    0.0900
66     H66    -7.5810    0.7073    1.6215 H        1 ZINC000003978005    0.1000
67     H67    -7.1809   -0.6421    3.6615 H        1 ZINC000003978005    0.1200
68     H68    -5.4730   -1.3995    5.2655 H        1 ZINC000003978005    0.1200
69     H69    -3.1103   -1.5200    4.5827 H        1 ZINC000003978005    0.1200
70     H70    -2.4556   -0.8839    2.2958 H        1 ZINC000003978005    0.1200
71     H71    -4.1641   -0.1309    0.6905 H        1 ZINC000003978005    0.1100
72     H72    -0.3938   -3.4893   -3.3372 H        1 ZINC000003978005    0.0700
73     H73    -0.8257   -1.8782   -3.9609 H        1 ZINC000003978005    0.0800
74     H74     5.9695   -2.9221   -2.2326 H        1 ZINC000003978005    0.1700
75     H75     6.1797   -3.2210   -4.7660 H        1 ZINC000003978005    0.4200
76     H76     4.3383   -3.1080   -7.1124 H        1 ZINC000003978005    0.1300
77     H77     1.9498   -2.6548   -7.4862 H        1 ZINC000003978005    0.1200
78     H78     0.4003   -2.1306   -5.6805 H        1 ZINC000003978005    0.1200
79     H79     3.5129   -2.8665   -0.6070 H        1 ZINC000003978005    0.0800
80     H80     3.1879   -1.2095   -1.1820 H        1 ZINC000003978005    0.0800
@<TRIPOS>BOND
1     1     2     1
2     1     49    1
3     1     50    1
4     1     51    1
5     2     47    1
6     2     3     1
7     3     4     1
8     3     52    1
9     3     53    1
10    4     5     1
11    4     6     1
12    4     34    1
13    6     7     2
14    6     8     am
15    8     9     1
16    8     54    1
17    9     32    1
18    9     10    1
19    9     11    1
20    10    55    1
21    10    56    1
22    10    57    1
23    11    12    1
24    12    31    1
25    12    13    1
26    12    14    1
27    13    58    1
28    14    15    1
29    14    19    1
30    14    16    1
31    16    17    1
32    16    59    1
33    16    60    1
34    17    18    1
35    17    61    1
36    17    62    1
37    18    19    1
38    18    63    1
39    18    64    1
40    19    20    am
41    20    21    2
42    20    22    1
43    22    23    1
44    22    24    1
45    22    31    1
46    24    25    1
47    24    65    1
48    24    66    1
49    25    30    ar
50    25    26    ar
51    26    27    ar
52    26    67    1
53    27    28    ar
54    27    68    1
55    28    29    ar
56    28    69    1
57    29    30    ar
58    29    70    1
59    30    71    1
60    31    32    am
61    32    33    2
62    34    35    1
63    34    72    1
64    34    73    1
65    35    36    1
66    35    47    1
67    35    37    1
68    37    45    ar
69    37    38    ar
70    38    42    ar
71    38    39    1
72    39    40    2
73    39    46    1
74    40    41    1
75    40    74    1
76    41    42    1
77    41    75    1
78    42    43    ar
79    43    44    ar
80    43    76    1
81    44    45    ar
82    44    77    1
83    45    78    1
84    46    47    1
85    46    79    1
86    46    80    1
87    47    48    1
@<TRIPOS>SUBSTRUCTURE
1   ZINC000003978005 1     RESIDUE    1   A     ZIN   1
