@<TRIPOS>MOLECULE
ZINC000000896698
47    48    1     0     0
SMALL
USER_CHARGES
@<TRIPOS>ATOM
1      C1     -0.0173    1.4248    0.0099 C.3      1 ZINC000000896698    0.0300
2      O2      0.0021   -0.0041    0.0020 O.3      1 ZINC000000896698   -0.3200
3      C3      0.6258   -0.6184    1.0415 C.ar     1 ZINC000000896698    0.1200
4      C4      1.2022    0.1384    2.0513 C.ar     1 ZINC000000896698   -0.2100
5      C5      1.8353   -0.4884    3.1070 C.ar     1 ZINC000000896698   -0.0700
6      C6      1.8951   -1.8688    3.1577 C.ar     1 ZINC000000896698   -0.0900
7      C7      2.5867   -2.5500    4.3104 C.3      1 ZINC000000896698   -0.0300
8      H8      2.9739   -1.7978    4.9976 H        1 ZINC000000896698    0.0900
9      C9      3.7432   -3.4003    3.7807 C.3      1 ZINC000000896698    0.0600
10     N10     4.7590   -2.5256    3.1800 N.3      1 ZINC000000896698   -0.5400
11     C11     5.3890   -1.6741    4.1979 C.3      1 ZINC000000896698    0.0200
12     C12     5.7662   -3.3102    2.4534 C.3      1 ZINC000000896698    0.0300
13     C13     1.5890   -3.4472    5.0456 C.3      1 ZINC000000896698    0.1500
14     O14     1.0814   -4.4334    4.1446 O.3      1 ZINC000000896698   -0.5500
15     C15     2.2912   -4.1388    6.2159 C.3      1 ZINC000000896698   -0.1500
16     C16     1.2935   -5.0360    6.9511 C.3      1 ZINC000000896698   -0.1200
17     C17     0.1371   -4.1857    7.4807 C.3      1 ZINC000000896698   -0.1200
18     C18    -0.5651   -3.4941    6.3104 C.3      1 ZINC000000896698   -0.1200
19     C19     0.4326   -2.5969    5.5752 C.3      1 ZINC000000896698   -0.1400
20     C20     1.3210   -2.6254    2.1528 C.ar     1 ZINC000000896698   -0.0500
21     C21     0.6822   -2.0034    1.0976 C.ar     1 ZINC000000896698   -0.1600
22     H22     1.0053    1.8021    0.0021 H        1 ZINC000000896698    0.0500
23     H23    -0.5445    1.7859   -0.8732 H        1 ZINC000000896698    0.1000
24     H24    -0.5275    1.7763    0.9067 H        1 ZINC000000896698    0.0500
25     H25     1.1564    1.2167    2.0118 H        1 ZINC000000896698    0.1200
26     H26     2.2842    0.1003    3.8934 H        1 ZINC000000896698    0.1200
27     H27     4.1873   -3.9619    4.6026 H        1 ZINC000000896698    0.0400
28     H28     3.3691   -4.0935    3.0273 H        1 ZINC000000896698    0.0800
29     H29     5.8680   -2.3008    4.9501 H        1 ZINC000000896698    0.0200
30     H30     6.1368   -1.0367    3.7262 H        1 ZINC000000896698    0.0700
31     H31     4.6294   -1.0529    4.6726 H        1 ZINC000000896698    0.0700
32     H32     5.2809   -3.8785    1.6599 H        1 ZINC000000896698    0.0700
33     H33     6.5060   -2.6381    2.0186 H        1 ZINC000000896698    0.0700
34     H34     6.2589   -3.9962    3.1424 H        1 ZINC000000896698    0.0200
35     H35     0.4417   -5.0388    4.5438 H        1 ZINC000000896698    0.3700
36     H36     3.1151   -4.7446    5.8385 H        1 ZINC000000896698    0.0700
37     H37     2.6784   -3.3866    6.9031 H        1 ZINC000000896698    0.0700
38     H38     0.9063   -5.7883    6.2638 H        1 ZINC000000896698    0.0600
39     H39     1.7938   -5.5287    7.7848 H        1 ZINC000000896698    0.0700
40     H40    -0.5737   -4.8249    8.0045 H        1 ZINC000000896698    0.0600
41     H41     0.5242   -3.4334    8.1680 H        1 ZINC000000896698    0.0600
42     H42    -0.9523   -4.2464    5.6232 H        1 ZINC000000896698    0.0600
43     H43    -1.3890   -2.8883    6.6878 H        1 ZINC000000896698    0.0700
44     H44     0.8197   -1.8447    6.2625 H        1 ZINC000000896698    0.0700
45     H45    -0.0677   -2.1042    4.7415 H        1 ZINC000000896698    0.0700
46     H46     1.3687   -3.7035    2.1948 H        1 ZINC000000896698    0.1400
47     H47     0.2339   -2.5948    0.3129 H        1 ZINC000000896698    0.1200
@<TRIPOS>BOND
1     1     2     1
2     1     22    1
3     1     23    1
4     1     24    1
5     2     3     1
6     3     21    ar
7     3     4     ar
8     4     5     ar
9     4     25    1
10    5     6     ar
11    5     26    1
12    6     7     1
13    6     20    ar
14    7     8     1
15    7     9     1
16    7     13    1
17    9     10    1
18    9     27    1
19    9     28    1
20    10    11    1
21    10    12    1
22    11    29    1
23    11    30    1
24    11    31    1
25    12    32    1
26    12    33    1
27    12    34    1
28    13    19    1
29    13    14    1
30    13    15    1
31    14    35    1
32    15    16    1
33    15    36    1
34    15    37    1
35    16    17    1
36    16    38    1
37    16    39    1
38    17    18    1
39    17    40    1
40    17    41    1
41    18    19    1
42    18    42    1
43    18    43    1
44    19    44    1
45    19    45    1
46    20    21    ar
47    20    46    1
48    21    47    1
@<TRIPOS>SUBSTRUCTURE
1   ZINC000000896698 1     RESIDUE    1   A     ZIN   1
