@<TRIPOS>MOLECULE
ZINC000001997127
32    34    1     0     0
SMALL
USER_CHARGES
@<TRIPOS>ATOM
1      N1     -0.0169    1.3929    0.0097 N.pl3    1 ZINC000001997127   -0.8800
2      C2      0.0021   -0.0041    0.0020 C.ar     1 ZINC000001997127    0.2400
3      C3     -1.1919   -0.7180    0.0038 C.ar     1 ZINC000001997127   -0.1600
4      C4     -1.1733   -2.1004   -0.0037 C.ar     1 ZINC000001997127   -0.0800
5      C5      0.0260   -2.7828   -0.0126 C.ar     1 ZINC000001997127   -0.1000
6      C6      1.2309   -2.0766   -0.0146 C.ar     1 ZINC000001997127   -0.1100
7      C7      1.2075   -0.6811   -0.0131 C.ar     1 ZINC000001997127   -0.1700
8      C8      2.6464   -0.2295   -0.0158 C.3      1 ZINC000001997127    0.1600
9      N9      3.4599   -1.4508   -0.0188 N.am     1 ZINC000001997127   -0.6000
10     C10     4.9241   -1.5010   -0.0213 C.3      1 ZINC000001997127    0.1500
11     H11     5.3233   -0.4868   -0.0207 H        1 ZINC000001997127    0.1400
12     C12     5.4131   -2.2447    1.2261 C.3      1 ZINC000001997127   -0.1400
13     C13     6.9371   -2.3830    1.1456 C.3      1 ZINC000001997127   -0.1400
14     C14     7.3041   -3.0640   -0.1464 C.2      1 ZINC000001997127    0.5200
15     O15     8.3134   -3.7334   -0.1997 O.2      1 ZINC000001997127   -0.5000
16     N16     6.5356   -2.9447   -1.2394 N.am     1 ZINC000001997127   -0.6700
17     C17     5.4005   -2.2286   -1.2507 C.2      1 ZINC000001997127    0.5100
18     O18     4.7457   -2.1687   -2.2691 O.2      1 ZINC000001997127   -0.4800
19     C19     2.6397   -2.5158   -0.0232 C.2      1 ZINC000001997127    0.5700
20     O20     3.0061   -3.6748   -0.0259 O.2      1 ZINC000001997127   -0.5100
21     H21     0.8165    1.8893    0.0044 H        1 ZINC000001997127    0.4000
22     H22    -0.8634    1.8664    0.0163 H        1 ZINC000001997127    0.4000
23     H23    -2.1349   -0.1916    0.0115 H        1 ZINC000001997127    0.1300
24     H24    -2.1032   -2.6496   -0.0023 H        1 ZINC000001997127    0.1300
25     H25     0.0329   -3.8627   -0.0178 H        1 ZINC000001997127    0.1300
26     H26     2.8524    0.3599   -0.9093 H        1 ZINC000001997127    0.0900
27     H27     2.8563    0.3582    0.8779 H        1 ZINC000001997127    0.0900
28     H28     5.1435   -1.6796    2.1183 H        1 ZINC000001997127    0.1000
29     H29     4.9573   -3.2341    1.2646 H        1 ZINC000001997127    0.1000
30     H30     7.3949   -1.3944    1.1790 H        1 ZINC000001997127    0.1200
31     H31     7.2937   -2.9792    1.9856 H        1 ZINC000001997127    0.1200
32     H32     6.8115   -3.3928   -2.0542 H        1 ZINC000001997127    0.4200
@<TRIPOS>BOND
1     1     2     1
2     1     21    1
3     1     22    1
4     2     7     ar
5     2     3     ar
6     3     4     ar
7     3     23    1
8     4     5     ar
9     4     24    1
10    5     6     ar
11    5     25    1
12    6     19    1
13    6     7     ar
14    7     8     1
15    8     9     1
16    8     26    1
17    8     27    1
18    9     10    1
19    9     19    am
20    10    11    1
21    10    17    1
22    10    12    1
23    12    13    1
24    12    28    1
25    12    29    1
26    13    14    1
27    13    30    1
28    13    31    1
29    14    15    2
30    14    16    am
31    16    17    am
32    16    32    1
33    17    18    2
34    19    20    2
@<TRIPOS>SUBSTRUCTURE
1   ZINC000001997127 1     RESIDUE    1   A     ZIN   1
