@<TRIPOS>MOLECULE
ZINC000000601317
60    63    1     0     0
SMALL
USER_CHARGES
@<TRIPOS>ATOM
1      N1      0.1048   -1.0172    0.0373 N.1      1 ZINC000000601317   -0.3900
2      C2      0.0913    0.1187    0.0234 C.1      1 ZINC000000601317    0.2000
3      C3      0.0738    1.5904    0.0054 C.3      1 ZINC000000601317    0.1500
4      C4      1.5058    2.1188    0.1104 C.3      1 ZINC000000601317   -0.1400
5      C5      2.3564    1.5124   -1.0075 C.3      1 ZINC000000601317   -0.0100
6      N6      3.6947    2.1179   -0.9878 N.4      1 ZINC000000601317   -0.3800
7      H7      3.6095    3.1216   -1.0457 H        1 ZINC000000601317    0.4100
8      C8      4.4691    1.6271   -2.1340 C.3      1 ZINC000000601317    0.0000
9      C9      5.8351    2.3160   -2.1642 C.3      1 ZINC000000601317   -0.1200
10     C10     6.5868    2.0039   -0.8670 C.3      1 ZINC000000601317   -0.1100
11     C11     6.8398    0.5211   -0.7754 C.2      1 ZINC000000601317    0.5000
12     O12     7.0688   -0.1218   -1.7858 O.co2    1 ZINC000000601317   -0.6700
13     O13     6.8154   -0.0357    0.3090 O.co2    1 ZINC000000601317   -0.6800
14     C14     7.9013    2.7409   -0.8565 C.ar     1 ZINC000000601317   -0.0500
15     C15     8.2486    3.5500   -1.9221 C.ar     1 ZINC000000601317   -0.1300
16     C16     9.4543    4.2260   -1.9125 C.ar     1 ZINC000000601317   -0.1200
17     C17    10.3125    4.0933   -0.8370 C.ar     1 ZINC000000601317   -0.1300
18     C18     9.9648    3.2849    0.2291 C.ar     1 ZINC000000601317   -0.1200
19     C19     8.7572    2.6123    0.2214 C.ar     1 ZINC000000601317   -0.1100
20     C20     5.7365    2.4529    0.3249 C.3      1 ZINC000000601317   -0.1100
21     C21     4.3749    1.7575    0.2620 C.3      1 ZINC000000601317   -0.0100
22     C22    -0.5453    2.0697   -1.2823 C.ar     1 ZINC000000601317   -0.0900
23     C23    -1.0859    1.1586   -2.1704 C.ar     1 ZINC000000601317   -0.1100
24     C24    -1.6538    1.5982   -3.3515 C.ar     1 ZINC000000601317   -0.1100
25     C25    -1.6815    2.9489   -3.6444 C.ar     1 ZINC000000601317   -0.1100
26     C26    -1.1418    3.8600   -2.7559 C.ar     1 ZINC000000601317   -0.1100
27     C27    -0.5777    3.4208   -1.5728 C.ar     1 ZINC000000601317   -0.1000
28     C28    -0.7355    2.0975    1.1711 C.ar     1 ZINC000000601317   -0.0900
29     C29    -0.1794    3.0004    2.0579 C.ar     1 ZINC000000601317   -0.1100
30     C30    -0.9218    3.4655    3.1272 C.ar     1 ZINC000000601317   -0.1100
31     C31    -2.2204    3.0281    3.3095 C.ar     1 ZINC000000601317   -0.1100
32     C32    -2.7768    2.1259    2.4221 C.ar     1 ZINC000000601317   -0.1100
33     C33    -2.0359    1.6641    1.3504 C.ar     1 ZINC000000601317   -0.1000
34     H34     1.5004    3.2046    0.0145 H        1 ZINC000000601317    0.1100
35     H35     1.9254    1.8415    1.0774 H        1 ZINC000000601317    0.1100
36     H36     2.4422    0.4364   -0.8558 H        1 ZINC000000601317    0.1300
37     H37     1.8837    1.7071   -1.9701 H        1 ZINC000000601317    0.1300
38     H38     4.6079    0.5498   -2.0436 H        1 ZINC000000601317    0.1400
39     H39     3.9313    1.8471   -3.0563 H        1 ZINC000000601317    0.1200
40     H40     6.4092    1.9489   -3.0149 H        1 ZINC000000601317    0.1200
41     H41     5.6974    3.3935   -2.2548 H        1 ZINC000000601317    0.0700
42     H42     7.5780    3.6537   -2.7624 H        1 ZINC000000601317    0.1200
43     H43     9.7259    4.8576   -2.7454 H        1 ZINC000000601317    0.1200
44     H44    11.2548    4.6210   -0.8298 H        1 ZINC000000601317    0.1200
45     H45    10.6355    3.1810    1.0692 H        1 ZINC000000601317    0.1200
46     H46     8.4855    1.9807    1.0543 H        1 ZINC000000601317    0.1300
47     H47     6.2402    2.1837    1.2533 H        1 ZINC000000601317    0.1100
48     H48     5.5968    3.5332    0.2859 H        1 ZINC000000601317    0.0700
49     H49     3.7662    2.0741    1.1090 H        1 ZINC000000601317    0.1200
50     H50     4.5168    0.6775    0.3014 H        1 ZINC000000601317    0.1400
51     H51    -1.0642    0.1034   -1.9416 H        1 ZINC000000601317    0.1200
52     H52    -2.0755    0.8864   -4.0457 H        1 ZINC000000601317    0.1300
53     H53    -2.1246    3.2923   -4.5675 H        1 ZINC000000601317    0.1300
54     H54    -1.1632    4.9153   -2.9849 H        1 ZINC000000601317    0.1300
55     H55    -0.1560    4.1326   -0.8786 H        1 ZINC000000601317    0.1300
56     H56     0.8351    3.3422    1.9155 H        1 ZINC000000601317    0.1300
57     H57    -0.4871    4.1704    3.8205 H        1 ZINC000000601317    0.1300
58     H58    -2.8001    3.3910    4.1453 H        1 ZINC000000601317    0.1300
59     H59    -3.7912    1.7839    2.5647 H        1 ZINC000000601317    0.1300
60     H60    -2.4705    0.9592    0.6571 H        1 ZINC000000601317    0.1200
@<TRIPOS>BOND
1     1     2     3
2     2     3     1
3     3     4     1
4     3     22    1
5     3     28    1
6     4     5     1
7     4     34    1
8     4     35    1
9     5     6     1
10    5     36    1
11    5     37    1
12    6     7     1
13    6     21    1
14    6     8     1
15    8     9     1
16    8     38    1
17    8     39    1
18    9     10    1
19    9     40    1
20    9     41    1
21    10    11    1
22    10    14    1
23    10    20    1
24    11    12    ar
25    11    13    ar
26    14    19    ar
27    14    15    ar
28    15    16    ar
29    15    42    1
30    16    17    ar
31    16    43    1
32    17    18    ar
33    17    44    1
34    18    19    ar
35    18    45    1
36    19    46    1
37    20    21    1
38    20    47    1
39    20    48    1
40    21    49    1
41    21    50    1
42    22    27    ar
43    22    23    ar
44    23    24    ar
45    23    51    1
46    24    25    ar
47    24    52    1
48    25    26    ar
49    25    53    1
50    26    27    ar
51    26    54    1
52    27    55    1
53    28    33    ar
54    28    29    ar
55    29    30    ar
56    29    56    1
57    30    31    ar
58    30    57    1
59    31    32    ar
60    31    58    1
61    32    33    ar
62    32    59    1
63    33    60    1
@<TRIPOS>SUBSTRUCTURE
1   ZINC000000601317 1     RESIDUE    1   A     ZIN   1
