@<TRIPOS>MOLECULE
ZINC000000896731
27   28    0    0    0
SMALL
USER_CHARGES
NO_NAME
@<TRIPOS>ATOM
1 C1        0.4660     1.4309    -0.2307 C.3    1 <0>      -0.1400
2 C2        0.0274    -0.0176    -0.0062 C.3    1 <0>       0.2200
3 H3       -1.0496    -0.0981    -0.1535 H      1 <0>       0.0900
4 C4        0.3748    -0.4355     1.3994 C.2    1 <0>      -0.1300
5 C5       -0.5059    -0.5856     2.3687 C.2    1 <0>      -0.1600
6 C6        0.0541    -0.9956     3.6463 C.ar   1 <0>      -0.0700
7 C7       -0.6002    -1.2426     4.8722 C.ar   1 <0>      -0.0900
8 C8        0.1104    -1.6229     5.9693 C.ar   1 <0>      -0.1300
9 C9        1.4885    -1.7739     5.9008 C.ar   1 <0>      -0.1200
10 C10       2.1518    -1.5404     4.7192 C.ar   1 <0>      -0.0800
11 C11       1.4418    -1.1490     3.5801 C.ar   1 <0>      -0.1900
12 S12       2.0003    -0.7910     1.9510 S.3    1 <0>       0.2000
13 N13       0.7173    -0.8900    -0.9597 N.am   1 <0>      -0.4400
14 O14       2.1309    -0.8728    -1.0405 O.3    1 <0>      -0.6800
15 C15       0.0065    -1.7091    -1.7599 C.2    1 <0>       0.6800
16 N16       0.6420    -2.5895    -2.5583 N.am   1 <0>      -0.8700
17 O17      -1.2081    -1.6538    -1.7615 O.2    1 <0>      -0.6700
18 H18       1.5430     1.5114    -0.0833 H      1 <0>       0.0700
19 H19       0.2148     1.7332    -1.2473 H      1 <0>       0.0500
20 H20      -0.0473     2.0801     0.4787 H      1 <0>       0.0500
21 H21      -1.5629    -0.4166     2.2249 H      1 <0>       0.1400
22 H22      -1.6720    -1.1288     4.9404 H      1 <0>       0.1200
23 H23      -0.4027    -1.8084     6.9013 H      1 <0>       0.1200
24 H24       2.0414    -2.0754     6.7782 H      1 <0>       0.1200
25 H25       3.2242    -1.6589     4.6711 H      1 <0>       0.1200
26 H26       1.6110    -2.6336    -2.5570 H      1 <0>       0.4000
27 H27       0.1305    -3.1790    -3.1342 H      1 <0>       0.3900
@<TRIPOS>BOND
1    1    2 1
2    1   18 1
3    1   19 1
4    1   20 1
5    2    3 1
6    2    4 1
7    2   13 1
8    4   12 1
9    4    5 2
10    5    6 1
11    5   21 1
12    6   11 ar
13    6    7 ar
14    7    8 ar
15    7   22 1
16    8    9 ar
17    8   23 1
18    9   10 ar
19    9   24 1
20   10   11 ar
21   10   25 1
22   11   12 1
23   13   14 1
24   13   15 am
25   15   16 am
26   15   17 2
27   16   26 1
28   16   27 1
