@<TRIPOS>MOLECULE
ZINC000100006264
38    40    1     0     0
SMALL
USER_CHARGES
@<TRIPOS>ATOM
1      C1     -0.4184    1.5526   -0.4910 C.3      1 ZINC000100006264   -0.2000
2      C2     -0.2408    0.0697   -0.2899 C.2      1 ZINC000100006264    0.3400
3      O3      0.8685   -0.3985   -0.1971 O.2      1 ZINC000100006264   -0.4700
4      C4     -1.4475   -0.8290   -0.2046 C.3      1 ZINC000100006264   -0.1400
5      C5     -0.9927   -2.2755   -0.0007 C.3      1 ZINC000100006264    0.0700
6      H6     -0.2604   -2.5373   -0.7644 H        1 ZINC000100006264    0.0600
7      C7     -0.3686   -2.4183    1.3636 C.ar     1 ZINC000100006264   -0.0400
8      C8     -1.0888   -2.0750    2.4924 C.ar     1 ZINC000100006264   -0.1100
9      C9     -0.5164   -2.2059    3.7439 C.ar     1 ZINC000100006264   -0.1300
10     C10     0.7761   -2.6806    3.8664 C.ar     1 ZINC000100006264   -0.1400
11     C11     1.4960   -3.0248    2.7376 C.ar     1 ZINC000100006264   -0.1300
12     C12     0.9220   -2.8979    1.4865 C.ar     1 ZINC000100006264   -0.0900
13     C13    -2.1813   -3.1957   -0.1081 C.2      1 ZINC000100006264   -0.4600
14     C14    -3.4490   -2.6966    0.0107 C.2      1 ZINC000100006264    0.3400
15     O15    -3.6613   -1.3782    0.2249 O.3      1 ZINC000100006264   -0.6500
16     C16    -4.5750   -3.6368   -0.1018 C.ar     1 ZINC000100006264   -0.1700
17     C17    -5.8950   -3.1961    0.0090 C.ar     1 ZINC000100006264   -0.0400
18     C18    -6.9268   -4.1021   -0.1016 C.ar     1 ZINC000100006264   -0.1700
19     C19    -6.6587   -5.4449   -0.3212 C.ar     1 ZINC000100006264   -0.0800
20     C20    -5.3590   -5.8935   -0.4327 C.ar     1 ZINC000100006264   -0.1600
21     C21    -4.3044   -4.9967   -0.3248 C.ar     1 ZINC000100006264    0.1500
22     O22    -3.0259   -5.4187   -0.4318 O.3      1 ZINC000100006264   -0.3000
23     C23    -1.9922   -4.5672   -0.3363 C.2      1 ZINC000100006264    0.5100
24     O24    -0.8574   -4.9994   -0.4401 O.2      1 ZINC000100006264   -0.5300
25     H25     0.5589    2.0340   -0.5274 H        1 ZINC000100006264    0.0700
26     H26    -0.9467    1.7316   -1.4274 H        1 ZINC000100006264    0.0900
27     H27    -0.9958    1.9649    0.3365 H        1 ZINC000100006264    0.0900
28     H28    -2.0704   -0.5221    0.6355 H        1 ZINC000100006264    0.1300
29     H29    -2.0213   -0.7554   -1.1284 H        1 ZINC000100006264    0.0900
30     H30    -2.0986   -1.7041    2.3967 H        1 ZINC000100006264    0.1200
31     H31    -1.0788   -1.9370    4.6258 H        1 ZINC000100006264    0.1100
32     H32     1.2236   -2.7822    4.8441 H        1 ZINC000100006264    0.1100
33     H33     2.5059   -3.3953    2.8334 H        1 ZINC000100006264    0.1100
34     H34     1.4845   -3.1668    0.6046 H        1 ZINC000100006264    0.1100
35     H35    -6.1061   -2.1509    0.1808 H        1 ZINC000100006264    0.1400
36     H36    -7.9494   -3.7652   -0.0164 H        1 ZINC000100006264    0.1200
37     H37    -7.4755   -6.1464   -0.4055 H        1 ZINC000100006264    0.1300
38     H38    -5.1618   -6.9414   -0.6041 H        1 ZINC000100006264    0.1300
@<TRIPOS>BOND
1     1     2     1
2     1     25    1
3     1     26    1
4     1     27    1
5     2     3     2
6     2     4     1
7     4     5     1
8     4     28    1
9     4     29    1
10    5     6     1
11    5     7     1
12    5     13    1
13    7     12    ar
14    7     8     ar
15    8     9     ar
16    8     30    1
17    9     10    ar
18    9     31    1
19    10    11    ar
20    10    32    1
21    11    12    ar
22    11    33    1
23    12    34    1
24    13    23    1
25    13    14    2
26    14    15    1
27    14    16    1
28    16    21    ar
29    16    17    ar
30    17    18    ar
31    17    35    1
32    18    19    ar
33    18    36    1
34    19    20    ar
35    19    37    1
36    20    21    ar
37    20    38    1
38    21    22    1
39    22    23    1
40    23    24    2
@<TRIPOS>SUBSTRUCTURE
1   ZINC000100006264 1     RESIDUE    1   A     ZIN   1
