@<TRIPOS>MOLECULE
ZINC000038945666
77    79    1     0     0
SMALL
USER_CHARGES
@<TRIPOS>ATOM
1      O1      0.0021   -0.0041    0.0020 O.2      1 ZINC000038945666   -0.5000
2      C2     -0.0143    1.2041    0.0087 C.2      1 ZINC000038945666    0.4600
3      C3      1.2804    1.9752    0.0004 C.3      1 ZINC000038945666   -0.1100
4      C4      2.4566    0.9969   -0.0160 C.3      1 ZINC000038945666   -0.1000
5      C5      3.7711    1.7799   -0.0244 C.3      1 ZINC000038945666   -0.0800
6      C6      4.9297    0.8163   -0.0406 C.ar     1 ZINC000038945666   -0.0800
7      C7      5.4688    0.3635    1.1490 C.ar     1 ZINC000038945666   -0.1200
8      C8      6.5315   -0.5203    1.1341 C.ar     1 ZINC000038945666   -0.1200
9      C9      7.0548   -0.9518   -0.0704 C.ar     1 ZINC000038945666   -0.1200
10     C10     6.5151   -0.4998   -1.2600 C.ar     1 ZINC000038945666   -0.1200
11     C11     5.4496    0.3808   -1.2452 C.ar     1 ZINC000038945666   -0.1200
12     O12    -1.1857    1.8593    0.0178 O.3      1 ZINC000038945666   -0.3500
13     C13    -2.3926    1.0520    0.0191 C.3      1 ZINC000038945666    0.0700
14     C14    -3.6185    1.9675    0.0299 C.3      1 ZINC000038945666    0.0900
15     C15    -4.8876    1.1219   -0.0944 C.3      1 ZINC000038945666    0.0500
16     O16    -6.0424    1.9953   -0.2032 O.3      1 ZINC000038945666   -0.3400
17     C17    -7.2429    1.4065   -0.3202 C.2      1 ZINC000038945666    0.4600
18     O18    -7.3261    0.2011   -0.3314 O.2      1 ZINC000038945666   -0.5000
19     C19    -8.4871    2.2487   -0.4377 C.3      1 ZINC000038945666   -0.1100
20     C20    -9.7103    1.3376   -0.5578 C.3      1 ZINC000038945666   -0.1000
21     C21   -10.9734    2.1927   -0.6770 C.3      1 ZINC000038945666   -0.0800
22     C22   -12.1783    1.2952   -0.7953 C.ar     1 ZINC000038945666   -0.0800
23     C23   -12.6128    0.8822   -2.0408 C.ar     1 ZINC000038945666   -0.1200
24     C24   -13.7180    0.0590   -2.1493 C.ar     1 ZINC000038945666   -0.1200
25     C25   -14.3884   -0.3516   -1.0122 C.ar     1 ZINC000038945666   -0.1200
26     C26   -13.9532    0.0607    0.2334 C.ar     1 ZINC000038945666   -0.1200
27     C27   -12.8455    0.8805    0.3421 C.ar     1 ZINC000038945666   -0.1200
28     O28    -3.6543    2.7139    1.2749 O.3      1 ZINC000038945666   -0.3500
29     C29    -4.2174    3.9318    1.2392 C.2      1 ZINC000038945666    0.4600
30     O30    -4.6656    4.3600    0.2021 O.2      1 ZINC000038945666   -0.4900
31     C31    -4.2906    4.7651    2.4928 C.3      1 ZINC000038945666   -0.1100
32     C32    -4.9737    6.0979    2.1800 C.3      1 ZINC000038945666   -0.1000
33     C33    -5.0480    6.9439    3.4527 C.3      1 ZINC000038945666   -0.0800
34     C34    -5.7208    8.2567    3.1446 C.ar     1 ZINC000038945666   -0.0800
35     C35    -4.9664    9.3414    2.7382 C.ar     1 ZINC000038945666   -0.1200
36     C36    -5.5836   10.5456    2.4556 C.ar     1 ZINC000038945666   -0.1200
37     C37    -6.9552   10.6650    2.5791 C.ar     1 ZINC000038945666   -0.1200
38     C38    -7.7098    9.5801    2.9847 C.ar     1 ZINC000038945666   -0.1200
39     C39    -7.0930    8.3746    3.2631 C.ar     1 ZINC000038945666   -0.1200
40     H40     1.3211    2.6074   -0.8866 H        1 ZINC000038945666    0.1100
41     H41     1.3381    2.5978    0.8933 H        1 ZINC000038945666    0.1100
42     H42     2.4159    0.3648    0.8710 H        1 ZINC000038945666    0.0800
43     H43     2.3989    0.3743   -0.9089 H        1 ZINC000038945666    0.0800
44     H44     3.8118    2.4121   -0.9114 H        1 ZINC000038945666    0.0800
45     H45     3.8288    2.4025    0.8684 H        1 ZINC000038945666    0.0800
46     H46     5.0600    0.7007    2.0901 H        1 ZINC000038945666    0.1200
47     H47     6.9532   -0.8735    2.0636 H        1 ZINC000038945666    0.1200
48     H48     7.8856   -1.6419   -0.0820 H        1 ZINC000038945666    0.1200
49     H49     6.9242   -0.8366   -2.2011 H        1 ZINC000038945666    0.1200
50     H50     5.0279    0.7340   -2.1746 H        1 ZINC000038945666    0.1200
51     H51    -2.4132    0.4278   -0.8742 H        1 ZINC000038945666    0.1000
52     H52    -2.4048    0.4181    0.9057 H        1 ZINC000038945666    0.0900
53     H53    -3.5609    2.6617   -0.8084 H        1 ZINC000038945666    0.1100
54     H54    -4.8209    0.4952   -0.9837 H        1 ZINC000038945666    0.0900
55     H55    -4.9914    0.4905    0.7880 H        1 ZINC000038945666    0.0900
56     H56    -8.5865    2.8755    0.4485 H        1 ZINC000038945666    0.1100
57     H57    -8.4161    2.8802   -1.3233 H        1 ZINC000038945666    0.1100
58     H58    -9.6109    0.7107   -1.4439 H        1 ZINC000038945666    0.0700
59     H59    -9.7813    0.7061    0.3278 H        1 ZINC000038945666    0.0700
60     H60   -11.0729    2.8195    0.2092 H        1 ZINC000038945666    0.0800
61     H61   -10.9024    2.8241   -1.5626 H        1 ZINC000038945666    0.0800
62     H62   -12.0891    1.2029   -2.9292 H        1 ZINC000038945666    0.1200
63     H63   -14.0580   -0.2632   -3.1225 H        1 ZINC000038945666    0.1200
64     H64   -15.2523   -0.9942   -1.0970 H        1 ZINC000038945666    0.1200
65     H65   -14.4772   -0.2597    1.1218 H        1 ZINC000038945666    0.1200
66     H66   -12.5055    1.2026    1.3153 H        1 ZINC000038945666    0.1200
67     H67    -4.8644    4.2317    3.2506 H        1 ZINC000038945666    0.1100
68     H68    -3.2830    4.9516    2.8644 H        1 ZINC000038945666    0.1100
69     H69    -4.3998    6.6313    1.4222 H        1 ZINC000038945666    0.0700
70     H70    -5.9813    5.9114    1.8084 H        1 ZINC000038945666    0.0800
71     H71    -5.6219    6.4105    4.2105 H        1 ZINC000038945666    0.0800
72     H72    -4.0404    7.1304    3.8243 H        1 ZINC000038945666    0.0800
73     H73    -3.8948    9.2481    2.6417 H        1 ZINC000038945666    0.1200
74     H74    -4.9941   11.3932    2.1387 H        1 ZINC000038945666    0.1200
75     H75    -7.4373   11.6060    2.3590 H        1 ZINC000038945666    0.1200
76     H76    -8.7813    9.6734    3.0815 H        1 ZINC000038945666    0.1200
77     H77    -7.6825    7.5270    3.5800 H        1 ZINC000038945666    0.1200
@<TRIPOS>BOND
1     1     2     2
2     2     3     1
3     2     12    1
4     3     4     1
5     3     40    1
6     3     41    1
7     4     5     1
8     4     42    1
9     4     43    1
10    5     6     1
11    5     44    1
12    5     45    1
13    6     11    ar
14    6     7     ar
15    7     8     ar
16    7     46    1
17    8     9     ar
18    8     47    1
19    9     10    ar
20    9     48    1
21    10    11    ar
22    10    49    1
23    11    50    1
24    12    13    1
25    13    14    1
26    13    51    1
27    13    52    1
28    14    15    1
29    14    28    1
30    14    53    1
31    15    16    1
32    15    54    1
33    15    55    1
34    16    17    1
35    17    18    2
36    17    19    1
37    19    20    1
38    19    56    1
39    19    57    1
40    20    21    1
41    20    58    1
42    20    59    1
43    21    22    1
44    21    60    1
45    21    61    1
46    22    27    ar
47    22    23    ar
48    23    24    ar
49    23    62    1
50    24    25    ar
51    24    63    1
52    25    26    ar
53    25    64    1
54    26    27    ar
55    26    65    1
56    27    66    1
57    28    29    1
58    29    30    2
59    29    31    1
60    31    32    1
61    31    67    1
62    31    68    1
63    32    33    1
64    32    69    1
65    32    70    1
66    33    34    1
67    33    71    1
68    33    72    1
69    34    39    ar
70    34    35    ar
71    35    36    ar
72    35    73    1
73    36    37    ar
74    36    74    1
75    37    38    ar
76    37    75    1
77    38    39    ar
78    38    76    1
79    39    77    1
@<TRIPOS>SUBSTRUCTURE
1   ZINC000038945666 1     RESIDUE    1   A     ZIN   1
