@<TRIPOS>MOLECULE
ZINC000001530922
39   41    0    0    0
SMALL
USER_CHARGES
NO_NAME
@<TRIPOS>ATOM
1 O1        0.6252     0.2009    -0.1680 O.2    1 <0>      -0.5200
2 C2        0.3692     1.3890    -0.1644 C.2    1 <0>       0.7100
3 N3       -0.8390     1.8927     0.1460 N.am   1 <0>      -0.7200
4 C4       -0.7274     3.3570     0.0306 C.3    1 <0>       0.2100
5 C5       -1.6684     3.8790    -1.0245 C.ar   1 <0>      -0.0900
6 C6       -2.7424     3.1110    -1.4338 C.ar   1 <0>      -0.1000
7 C7       -3.6056     3.5898    -2.4015 C.ar   1 <0>      -0.1200
8 C8       -3.3950     4.8368    -2.9597 C.ar   1 <0>      -0.1100
9 C9       -2.3215     5.6052    -2.5497 C.ar   1 <0>      -0.1100
10 C10      -1.4608     5.1282    -1.5789 C.ar   1 <0>      -0.1000
11 C11      -1.0030     4.0160     1.3575 C.ar   1 <0>      -0.0900
12 C12      -0.6941     5.3504     1.5439 C.ar   1 <0>      -0.0900
13 C13      -0.9469     5.9549     2.7611 C.ar   1 <0>      -0.1200
14 C14      -1.5091     5.2251     3.7918 C.ar   1 <0>      -0.1100
15 C15      -1.8188     3.8909     3.6050 C.ar   1 <0>      -0.1200
16 C16      -1.5700     3.2875     2.3865 C.ar   1 <0>      -0.1000
17 C17       0.7139     3.5727    -0.3865 C.2    1 <0>       0.5400
18 O18       1.2635     4.6317    -0.6010 O.2    1 <0>      -0.4500
19 N19       1.2590     2.3425    -0.4629 N.am   1 <0>      -0.5700
20 C20       2.6514     2.0810    -0.8359 C.3    1 <0>       0.3700
21 O21       3.3992     1.7308     0.3303 O.3    1 <0>      -0.7700
22 P22       4.9695     1.3772     0.2917 P.3    1 <0>       2.2200
23 O23       5.2163     0.2389    -0.7233 O.2    1 <0>      -1.1000
24 O24       5.7689     2.6290    -0.1338 O.3    1 <0>      -1.1000
25 O25       5.4495     0.9055     1.7543 O.3    1 <0>      -0.9000
26 H26      -1.6297     1.3897     0.3964 H      1 <0>       0.4400
27 H27      -2.9069     2.1367    -0.9977 H      1 <0>       0.1200
28 H28      -4.4443     2.9894    -2.7218 H      1 <0>       0.1300
29 H29      -4.0689     5.2106    -3.7163 H      1 <0>       0.1200
30 H30      -2.1567     6.5793    -2.9861 H      1 <0>       0.1300
31 H31      -0.6221     5.7285    -1.2586 H      1 <0>       0.1400
32 H32      -0.2549     5.9206     0.7387 H      1 <0>       0.1300
33 H33      -0.7049     6.9973     2.9070 H      1 <0>       0.1300
34 H34      -1.7060     5.6972     4.7430 H      1 <0>       0.1200
35 H35      -2.2577     3.3206     4.4104 H      1 <0>       0.1300
36 H36      -1.8120     2.2451     2.2406 H      1 <0>       0.1200
37 H37       2.6878     1.2594    -1.5512 H      1 <0>       0.1000
38 H38       3.0806     2.9754    -1.2877 H      1 <0>       0.1000
39 H39       6.3875     0.6761     1.8054 H      1 <0>       0.4200
@<TRIPOS>BOND
1    1    2 2
2    2   19 am
3    2    3 am
4    3    4 1
5    3   26 1
6    4    5 1
7    4   11 1
8    4   17 1
9    5   10 ar
10    5    6 ar
11    6    7 ar
12    6   27 1
13    7    8 ar
14    7   28 1
15    8    9 ar
16    8   29 1
17    9   10 ar
18    9   30 1
19   10   31 1
20   11   16 ar
21   11   12 ar
22   12   13 ar
23   12   32 1
24   13   14 ar
25   13   33 1
26   14   15 ar
27   14   34 1
28   15   16 ar
29   15   35 1
30   16   36 1
31   17   18 2
32   17   19 am
33   19   20 1
34   20   21 1
35   20   37 1
36   20   38 1
37   21   22 1
38   22   23 2
39   22   24 1
40   22   25 1
41   25   39 1
