@<TRIPOS>MOLECULE
ZINC000004217732
58    59    1     0     0
SMALL
USER_CHARGES
@<TRIPOS>ATOM
1      C1     -0.0187    1.5258    0.0104 C.3      1 ZINC000004217732   -0.1500
2      C2      0.0021   -0.0041    0.0020 C.3      1 ZINC000004217732   -0.1200
3      C3     -1.4333   -0.5336    0.0129 C.3      1 ZINC000004217732   -0.1200
4      C4     -1.4126   -2.0635    0.0045 C.3      1 ZINC000004217732   -0.1700
5      C5     -2.8479   -2.5931    0.0153 C.3      1 ZINC000004217732    0.2800
6      F6     -3.5028   -2.1419    1.1663 F        1 ZINC000004217732   -0.1800
7      F7     -3.5246   -2.1296   -1.1181 F        1 ZINC000004217732   -0.1800
8      C8     -2.8272   -4.1229    0.0069 C.3      1 ZINC000004217732    0.2600
9      O9     -1.8381   -4.5797    0.9316 O.3      1 ZINC000004217732   -0.5500
10     C10    -4.1935   -4.6410    0.4469 C.3      1 ZINC000004217732   -0.1300
11     C11    -4.2968   -6.1668    0.2693 C.3      1 ZINC000004217732   -0.1000
12     C12    -3.9407   -6.4615   -1.1766 C.3      1 ZINC000004217732   -0.1300
13     H13    -4.6029   -5.9087   -1.8429 H        1 ZINC000004217732    0.0900
14     C14    -2.4721   -5.9913   -1.3763 C.3      1 ZINC000004217732    0.0800
15     H15    -1.8373   -6.4068   -0.5937 H        1 ZINC000004217732    0.0900
16     C16    -2.1325   -6.6349   -2.7220 C.3      1 ZINC000004217732   -0.1700
17     C17    -2.7586   -8.0261   -2.6100 C.2      1 ZINC000004217732    0.3700
18     O18    -2.4276   -9.0136   -3.2212 O.2      1 ZINC000004217732   -0.4200
19     C19    -3.8990   -7.9301   -1.5848 C.3      1 ZINC000004217732   -0.1300
20     H20    -3.6759   -8.5465   -0.7140 H        1 ZINC000004217732    0.1100
21     C21    -5.2196   -8.3706   -2.2196 C.3      1 ZINC000004217732   -0.1000
22     C22    -5.1530   -9.8626   -2.5519 C.3      1 ZINC000004217732   -0.1300
23     C23    -6.4736  -10.3031   -3.1867 C.3      1 ZINC000004217732   -0.1200
24     C24    -6.4070  -11.7951   -3.5190 C.3      1 ZINC000004217732   -0.1200
25     C25    -7.7275  -12.2357   -4.1538 C.3      1 ZINC000004217732   -0.0900
26     C26    -7.6610  -13.7277   -4.4860 C.3      1 ZINC000004217732   -0.1800
27     C27    -8.9617  -14.1616   -5.1113 C.2      1 ZINC000004217732    0.4900
28     O28    -9.8587  -13.3525   -5.2759 O.co2    1 ZINC000004217732   -0.7000
29     O29    -9.1169  -15.3218   -5.4525 O.co2    1 ZINC000004217732   -0.7100
30     O30    -2.4814   -4.5795   -1.3126 O.3      1 ZINC000004217732   -0.3600
31     H31     1.0039    1.9031    0.0027 H        1 ZINC000004217732    0.0600
32     H32    -0.5459    1.8868   -0.8726 H        1 ZINC000004217732    0.0600
33     H33    -0.5289    1.8773    0.9072 H        1 ZINC000004217732    0.0500
34     H34     0.5123   -0.3556   -0.8948 H        1 ZINC000004217732    0.0600
35     H35     0.5293   -0.3651    0.8851 H        1 ZINC000004217732    0.0600
36     H36    -1.9435   -0.1821    0.9097 H        1 ZINC000004217732    0.0700
37     H37    -1.9605   -0.1726   -0.8702 H        1 ZINC000004217732    0.0700
38     H38    -0.9024   -2.4150   -0.8923 H        1 ZINC000004217732    0.1000
39     H39    -0.8854   -2.4246    0.8875 H        1 ZINC000004217732    0.1000
40     H40    -0.9420   -4.2768    0.7305 H        1 ZINC000004217732    0.3800
41     H41    -4.3483   -4.3925    1.4968 H        1 ZINC000004217732    0.1000
42     H42    -4.9673   -4.1589   -0.1506 H        1 ZINC000004217732    0.0900
43     H43    -3.5953   -6.6683    0.9360 H        1 ZINC000004217732    0.0800
44     H44    -5.3139   -6.4987    0.4781 H        1 ZINC000004217732    0.0800
45     H45    -2.5831   -6.0748   -3.5413 H        1 ZINC000004217732    0.1200
46     H46    -1.0527   -6.7080   -2.8522 H        1 ZINC000004217732    0.1000
47     H47    -6.0366   -8.1900   -1.5211 H        1 ZINC000004217732    0.0700
48     H48    -5.3908   -7.8021   -3.1337 H        1 ZINC000004217732    0.0700
49     H49    -4.3360  -10.0432   -3.2504 H        1 ZINC000004217732    0.0800
50     H50    -4.9818  -10.4311   -1.6378 H        1 ZINC000004217732    0.0600
51     H51    -7.2906  -10.1226   -2.4882 H        1 ZINC000004217732    0.0600
52     H52    -6.6447   -9.7346   -4.1008 H        1 ZINC000004217732    0.0600
53     H53    -5.5900  -11.9757   -4.2175 H        1 ZINC000004217732    0.0500
54     H54    -6.2358  -12.3637   -2.6048 H        1 ZINC000004217732    0.0500
55     H55    -8.5446  -12.0551   -3.4552 H        1 ZINC000004217732    0.0600
56     H56    -7.8987  -11.6672   -5.0679 H        1 ZINC000004217732    0.0600
57     H57    -6.8440  -13.9083   -5.1846 H        1 ZINC000004217732    0.0500
58     H58    -7.4898  -14.2962   -3.5719 H        1 ZINC000004217732    0.0500
@<TRIPOS>BOND
1     1     2     1
2     1     31    1
3     1     32    1
4     1     33    1
5     2     3     1
6     2     34    1
7     2     35    1
8     3     4     1
9     3     36    1
10    3     37    1
11    4     5     1
12    4     38    1
13    4     39    1
14    5     6     1
15    5     7     1
16    5     8     1
17    8     30    1
18    8     9     1
19    8     10    1
20    9     40    1
21    10    11    1
22    10    41    1
23    10    42    1
24    11    12    1
25    11    43    1
26    11    44    1
27    12    13    1
28    12    19    1
29    12    14    1
30    14    15    1
31    14    16    1
32    14    30    1
33    16    17    1
34    16    45    1
35    16    46    1
36    17    18    2
37    17    19    1
38    19    20    1
39    19    21    1
40    21    22    1
41    21    47    1
42    21    48    1
43    22    23    1
44    22    49    1
45    22    50    1
46    23    24    1
47    23    51    1
48    23    52    1
49    24    25    1
50    24    53    1
51    24    54    1
52    25    26    1
53    25    55    1
54    25    56    1
55    26    27    1
56    26    57    1
57    26    58    1
58    27    28    ar
59    27    29    ar
@<TRIPOS>SUBSTRUCTURE
1   ZINC000004217732 1     RESIDUE    1   A     ZIN   1
