@<TRIPOS>MOLECULE
ZINC000001530689
57   59    0    0    0
SMALL
USER_CHARGES
NO_NAME
@<TRIPOS>ATOM
1 C1       -0.8866    -1.3107    -0.0727 C.3    1 <0>      -0.1500
2 C2        0.0396    -0.1288    -0.3663 C.3    1 <0>      -0.0900
3 C3        0.9655    -0.4857    -1.5004 C.2    1 <0>      -0.0600
4 C4        2.1901    -1.0049    -1.2380 C.2    1 <0>      -0.0400
5 C5        2.6732    -1.0917     0.1581 C.ar   1 <0>      -0.0300
6 C6        2.9112     0.0718     0.8909 C.ar   1 <0>      -0.1100
7 C7        3.3611    -0.0160     2.1921 C.ar   1 <0>      -0.1200
8 C8        3.5764    -1.2542     2.7707 C.ar   1 <0>      -0.1200
9 C9        3.3428    -2.4116     2.0494 C.ar   1 <0>      -0.1200
10 C10       2.8873    -2.3375     0.7492 C.ar   1 <0>      -0.1000
11 C11       3.0433    -1.4845    -2.3472 C.ar   1 <0>      -0.0800
12 C12       2.6395    -2.5749    -3.1196 C.ar   1 <0>      -0.0600
13 C13       3.4370    -3.0185    -4.1526 C.ar   1 <0>      -0.1500
14 C14       4.6410    -2.3822    -4.4254 C.ar   1 <0>       0.1400
15 O15       5.4242    -2.8222    -5.4446 O.3    1 <0>      -0.3000
16 C16       6.6493    -2.1220    -5.6702 C.3    1 <0>       0.0700
17 C17       7.3897    -2.7564    -6.8493 C.3    1 <0>       0.0500
18 N18       6.5921    -2.5951    -8.0723 N.3    1 <0>      -0.5400
19 C19       6.6935    -1.2240    -8.5898 C.3    1 <0>       0.0200
20 C20       6.9898    -3.5737    -9.0931 C.3    1 <0>       0.0200
21 C21       5.0462    -1.2971    -3.6591 C.ar   1 <0>      -0.2100
22 C22       4.2517    -0.8443    -2.6278 C.ar   1 <0>      -0.0600
23 C23       0.5407    -0.2710    -2.8918 C.ar   1 <0>      -0.0400
24 C24       1.2118     0.6555    -3.6969 C.ar   1 <0>      -0.1000
25 C25       0.8077     0.8507    -5.0006 C.ar   1 <0>      -0.1200
26 C26      -0.2592     0.1333    -5.5131 C.ar   1 <0>      -0.1200
27 C27      -0.9288    -0.7849    -4.7229 C.ar   1 <0>      -0.1200
28 C28      -0.5330    -0.9962    -3.4191 C.ar   1 <0>      -0.1100
29 H29      -1.5540    -1.4684    -0.9199 H      1 <0>       0.0600
30 H30      -0.2898    -2.2079     0.0916 H      1 <0>       0.0600
31 H31      -1.4758    -1.0978     0.8193 H      1 <0>       0.0600
32 H32      -0.5571     0.7401    -0.6440 H      1 <0>       0.0700
33 H33       0.6263     0.1025     0.5227 H      1 <0>       0.0800
34 H34       2.7438     1.0389     0.4402 H      1 <0>       0.1200
35 H35       3.5459     0.8837     2.7602 H      1 <0>       0.1200
36 H36       3.9287    -1.3176     3.7897 H      1 <0>       0.1200
37 H37       3.5132    -3.3751     2.5066 H      1 <0>       0.1200
38 H38       2.7054    -3.2416     0.1872 H      1 <0>       0.1200
39 H39       1.7035    -3.0704    -2.9079 H      1 <0>       0.1200
40 H40       3.1255    -3.8623    -4.7504 H      1 <0>       0.1300
41 H41       6.4346    -1.0774    -5.8956 H      1 <0>       0.0600
42 H42       7.2710    -2.1805    -4.7768 H      1 <0>       0.0700
43 H43       8.3551    -2.2671    -6.9778 H      1 <0>       0.0600
44 H44       7.5435    -3.8176    -6.6532 H      1 <0>       0.0900
45 H45       7.7349    -0.9983    -8.8193 H      1 <0>       0.0300
46 H46       6.0937    -1.1321    -9.4953 H      1 <0>       0.0700
47 H47       6.3270    -0.5241    -7.8387 H      1 <0>       0.0700
48 H48       6.7641    -4.5797    -8.7394 H      1 <0>       0.0700
49 H49       6.4407    -3.3809   -10.0147 H      1 <0>       0.0700
50 H50       8.0597    -3.4867    -9.2826 H      1 <0>       0.0300
51 H51       5.9831    -0.8049    -3.8743 H      1 <0>       0.1200
52 H52       4.5674    -0.0003    -2.0324 H      1 <0>       0.1200
53 H53       2.0441     1.2166    -3.2982 H      1 <0>       0.1200
54 H54       1.3248     1.5657    -5.6234 H      1 <0>       0.1200
55 H55      -0.5712     0.2910    -6.5349 H      1 <0>       0.1200
56 H56      -1.7605    -1.3406    -5.1301 H      1 <0>       0.1200
57 H57      -1.0562    -1.7133    -2.8039 H      1 <0>       0.1200
@<TRIPOS>BOND
1    1    2 1
2    1   29 1
3    1   30 1
4    1   31 1
5    2    3 1
6    2   32 1
7    2   33 1
8    3    4 2
9    3   23 1
10    4    5 1
11    4   11 1
12    5   10 ar
13    5    6 ar
14    6    7 ar
15    6   34 1
16    7    8 ar
17    7   35 1
18    8    9 ar
19    8   36 1
20    9   10 ar
21    9   37 1
22   10   38 1
23   11   22 ar
24   11   12 ar
25   12   13 ar
26   12   39 1
27   13   14 ar
28   13   40 1
29   14   15 1
30   14   21 ar
31   15   16 1
32   16   17 1
33   16   41 1
34   16   42 1
35   17   18 1
36   17   43 1
37   17   44 1
38   18   19 1
39   18   20 1
40   19   45 1
41   19   46 1
42   19   47 1
43   20   48 1
44   20   49 1
45   20   50 1
46   21   22 ar
47   21   51 1
48   22   52 1
49   23   28 ar
50   23   24 ar
51   24   25 ar
52   24   53 1
53   25   26 ar
54   25   54 1
55   26   27 ar
56   26   55 1
57   27   28 ar
58   27   56 1
59   28   57 1
