@<TRIPOS>MOLECULE
ZINC000019632628
53   56    0    0    0
SMALL
USER_CHARGES
NO_NAME
@<TRIPOS>ATOM
1 O1        0.0512     1.6182    -0.1508 O.3    1 <0>      -0.5700
2 C2        0.2927     0.2130    -0.2459 C.3    1 <0>       0.0700
3 C3       -1.0307    -0.5424    -0.1080 C.3    1 <0>       0.0600
4 O4       -1.8761    -0.2284    -1.2164 O.3    1 <0>      -0.3900
5 C5       -3.1445    -0.8857    -1.1845 C.3    1 <0>       0.0300
6 C6       -3.9614    -0.4778    -2.4123 C.3    1 <0>       0.0000
7 N7       -3.2987    -0.9707    -3.6271 N.4    1 <0>      -0.3800
8 H8       -2.3464    -0.6378    -3.6479 H      1 <0>       0.4300
9 C9       -4.0148    -0.4741    -4.8089 C.3    1 <0>      -0.0200
10 C10      -3.2598    -0.8916    -6.0752 C.3    1 <0>       0.0900
11 N11      -3.0730    -2.3505    -6.0471 N.pl3  1 <0>      -0.6200
12 C12      -3.4150    -3.1288    -7.1295 C.2    1 <0>       0.5200
13 N13      -3.3352    -4.3822    -6.9460 N.2    1 <0>      -0.5800
14 C14      -3.5657    -5.4214    -7.7869 C.ar   1 <0>       0.1800
15 C15      -2.6392    -6.4698    -7.8268 C.ar   1 <0>      -0.1200
16 C16      -2.8398    -7.5459    -8.6683 C.ar   1 <0>      -0.0800
17 C17      -3.9577    -7.5994    -9.4788 C.ar   1 <0>      -0.1300
18 C18      -4.8831    -6.5693    -9.4504 C.ar   1 <0>      -0.0500
19 C19      -4.6922    -5.4842    -8.6121 C.ar   1 <0>      -0.1700
20 S20      -5.8805    -4.1826    -8.5960 S.3    1 <0>      -0.0200
21 C21      -4.9280    -2.7855    -9.0928 C.ar   1 <0>      -0.0900
22 C22      -5.2765    -2.0798   -10.2331 C.ar   1 <0>      -0.0700
23 C23      -4.5326    -0.9805   -10.6216 C.ar   1 <0>      -0.0900
24 C24      -3.4402    -0.5822    -9.8718 C.ar   1 <0>      -0.1000
25 C25      -3.0816    -1.2766    -8.7352 C.ar   1 <0>      -0.1000
26 C26      -3.8249    -2.3933    -8.3279 C.ar   1 <0>      -0.1000
27 C27      -2.5098    -2.9539    -4.8294 C.3    1 <0>       0.1000
28 C28      -3.3021    -2.4391    -3.6229 C.3    1 <0>      -0.0300
29 H29       0.8479     2.1604    -0.2298 H      1 <0>       0.3900
30 H30       0.7416    -0.0140    -1.2129 H      1 <0>       0.0600
31 H31       0.9708    -0.0938     0.5505 H      1 <0>       0.0700
32 H32      -0.8368    -1.6149    -0.0914 H      1 <0>       0.0700
33 H33      -1.5224    -0.2477     0.8190 H      1 <0>       0.0700
34 H34      -2.9945    -1.9653    -1.1902 H      1 <0>       0.0700
35 H35      -3.6802    -0.5981    -0.2798 H      1 <0>       0.1000
36 H36      -4.9605    -0.9081    -2.3433 H      1 <0>       0.1400
37 H37      -4.0359     0.6088    -2.4545 H      1 <0>       0.1400
38 H38      -5.0196    -0.8962    -4.8290 H      1 <0>       0.1300
39 H39      -4.0780     0.6132    -4.7653 H      1 <0>       0.1400
40 H40      -3.8392    -0.6135    -6.9556 H      1 <0>       0.1400
41 H41      -2.2882    -0.3984    -6.1017 H      1 <0>       0.1000
42 H42      -1.7629    -6.4366    -7.1965 H      1 <0>       0.1300
43 H43      -2.1194    -8.3502    -8.6929 H      1 <0>       0.1400
44 H44      -4.1095    -8.4441   -10.1344 H      1 <0>       0.1400
45 H45      -5.7564    -6.6127   -10.0843 H      1 <0>       0.1400
46 H46      -6.1295    -2.3887   -10.8191 H      1 <0>       0.1400
47 H47      -4.8047    -0.4324   -11.5116 H      1 <0>       0.1400
48 H48      -2.8639     0.2781   -10.1788 H      1 <0>       0.1400
49 H49      -2.2272    -0.9577    -8.1567 H      1 <0>       0.1300
50 H50      -2.5933    -4.0392    -4.8860 H      1 <0>       0.1400
51 H51      -1.4624    -2.6689    -4.7301 H      1 <0>       0.0900
52 H52      -2.8396    -2.7991    -2.7039 H      1 <0>       0.1400
53 H53      -4.3281    -2.8024    -3.6801 H      1 <0>       0.1300
@<TRIPOS>BOND
1    1    2 1
2    1   29 1
3    2    3 1
4    2   30 1
5    2   31 1
6    3    4 1
7    3   32 1
8    3   33 1
9    4    5 1
10    5    6 1
11    5   34 1
12    5   35 1
13    6    7 1
14    6   36 1
15    6   37 1
16    7    8 1
17    7   28 1
18    7    9 1
19    9   10 1
20    9   38 1
21    9   39 1
22   10   11 1
23   10   40 1
24   10   41 1
25   11   12 1
26   11   27 1
27   12   26 1
28   12   13 2
29   13   14 1
30   14   19 ar
31   14   15 ar
32   15   16 ar
33   15   42 1
34   16   17 ar
35   16   43 1
36   17   18 ar
37   17   44 1
38   18   19 ar
39   18   45 1
40   19   20 1
41   20   21 1
42   21   26 ar
43   21   22 ar
44   22   23 ar
45   22   46 1
46   23   24 ar
47   23   47 1
48   24   25 ar
49   24   48 1
50   25   26 ar
51   25   49 1
52   27   28 1
53   27   50 1
54   27   51 1
55   28   52 1
56   28   53 1
