@<TRIPOS>MOLECULE
ZINC000100015048
74    76    1     0     0
SMALL
USER_CHARGES
@<TRIPOS>ATOM
1      C1     -0.0160    1.3287    0.0093 C.2      1 ZINC000100015048   -0.1700
2      C2      0.0021   -0.0041    0.0020 C.2      1 ZINC000100015048   -0.1300
3      C3     -1.2458   -0.7957    0.0034 C.2      1 ZINC000100015048   -0.0800
4      C4     -2.2888   -0.4702    0.7946 C.2      1 ZINC000100015048   -0.1100
5      C5     -2.2010    0.6928    1.6807 C.2      1 ZINC000100015048   -0.1500
6      C6     -3.2315    1.0144    2.4625 C.2      1 ZINC000100015048   -0.0800
7      C7     -4.5223    0.2081    2.4828 C.3      1 ZINC000100015048   -0.0900
8      C8     -4.9173   -0.1433    3.9158 C.3      1 ZINC000100015048   -0.1200
9      C9     -4.8665    1.0854    4.8394 C.3      1 ZINC000100015048   -0.1100
10     C10    -3.4543    1.6214    4.8074 C.3      1 ZINC000100015048   -0.0500
11     C11    -2.4723    0.4739    5.0518 C.3      1 ZINC000100015048   -0.1500
12     C12    -3.1997    2.1930    3.3895 C.3      1 ZINC000100015048   -0.0600
13     H13    -3.9666    2.9189    3.1192 H        1 ZINC000100015048    0.0800
14     C14    -1.8466    2.8812    3.5834 C.3      1 ZINC000100015048   -0.1200
15     C15    -2.0103    3.5773    4.9641 C.3      1 ZINC000100015048   -0.1200
16     C16    -3.1032    2.7859    5.7205 C.3      1 ZINC000100015048   -0.0700
17     H17    -3.9793    3.4131    5.8852 H        1 ZINC000100015048    0.0700
18     C18    -2.5598    2.2722    7.0553 C.3      1 ZINC000100015048   -0.0800
19     H19    -1.6924    1.6375    6.8744 H        1 ZINC000100015048    0.0800
20     C20    -3.6439    1.4628    7.7697 C.3      1 ZINC000100015048   -0.1600
21     C21    -2.1500    3.4590    7.9297 C.3      1 ZINC000100015048   -0.1200
22     C22    -1.4923    2.9447    9.2118 C.3      1 ZINC000100015048   -0.1200
23     C23    -1.0825    4.1315   10.0862 C.3      1 ZINC000100015048   -0.1400
24     C24    -0.4248    3.6172   11.3683 C.3      1 ZINC000100015048    0.1200
25     C25     0.8149    2.7948   11.0111 C.3      1 ZINC000100015048   -0.1400
26     C26    -0.0150    4.8040   12.2427 C.3      1 ZINC000100015048   -0.1800
27     O27    -1.3512    2.7966   12.0828 O.3      1 ZINC000100015048   -0.5600
28     C28    -1.2973   -1.9907   -0.9275 C.3      1 ZINC000100015048   -0.1100
29     C29     0.0043   -2.7830   -0.7683 C.3      1 ZINC000100015048    0.1100
30     H30     0.0799   -3.1542    0.2537 H        1 ZINC000100015048    0.0700
31     O31     0.0024   -3.8870   -1.6757 O.3      1 ZINC000100015048   -0.5700
32     C32     1.2007   -1.8801   -1.0710 C.3      1 ZINC000100015048   -0.1100
33     C33     1.3034   -0.7809   -0.0146 C.3      1 ZINC000100015048    0.1500
34     H34     2.1291   -0.1126   -0.2591 H        1 ZINC000100015048    0.0700
35     O35     1.5228   -1.3669    1.2701 O.3      1 ZINC000100015048   -0.5600
36     H36     0.9119    1.8814    0.0035 H        1 ZINC000100015048    0.1100
37     H37    -0.9585    1.8559    0.0167 H        1 ZINC000100015048    0.1100
38     H38    -3.1886   -1.0672    0.7747 H        1 ZINC000100015048    0.1200
39     H39    -1.3011    1.2898    1.7006 H        1 ZINC000100015048    0.1300
40     H40    -5.3188    0.7941    2.0243 H        1 ZINC000100015048    0.0700
41     H41    -4.3805   -0.7108    1.9139 H        1 ZINC000100015048    0.0700
42     H42    -5.9300   -0.5464    3.9164 H        1 ZINC000100015048    0.0600
43     H43    -4.2341   -0.9024    4.2966 H        1 ZINC000100015048    0.0700
44     H44    -5.5594    1.8466    4.4810 H        1 ZINC000100015048    0.0600
45     H45    -5.1288    0.7946    5.8566 H        1 ZINC000100015048    0.0700
46     H46    -2.6026   -0.2861    4.2815 H        1 ZINC000100015048    0.0600
47     H47    -1.4518    0.8554    5.0169 H        1 ZINC000100015048    0.0500
48     H48    -2.6628    0.0350    6.0312 H        1 ZINC000100015048    0.0600
49     H49    -1.0410    2.1477    3.6138 H        1 ZINC000100015048    0.0700
50     H50    -1.6714    3.6168    2.7984 H        1 ZINC000100015048    0.0600
51     H51    -1.0707    3.5406    5.5155 H        1 ZINC000100015048    0.0700
52     H52    -2.3241    4.6121    4.8268 H        1 ZINC000100015048    0.0600
53     H53    -4.5114    2.0975    7.9506 H        1 ZINC000100015048    0.0500
54     H54    -3.9359    0.6173    7.1468 H        1 ZINC000100015048    0.0600
55     H55    -3.2568    1.0968    8.7207 H        1 ZINC000100015048    0.0600
56     H56    -1.4434    4.0849    7.3847 H        1 ZINC000100015048    0.0600
57     H57    -3.0332    4.0449    8.1842 H        1 ZINC000100015048    0.0600
58     H58    -2.1990    2.3188    9.7568 H        1 ZINC000100015048    0.0700
59     H59    -0.6091    2.3588    8.9573 H        1 ZINC000100015048    0.0600
60     H60    -0.3759    4.7574    9.5412 H        1 ZINC000100015048    0.0700
61     H61    -1.9657    4.7174   10.3407 H        1 ZINC000100015048    0.0600
62     H62     1.5215    3.4207   10.4661 H        1 ZINC000100015048    0.0700
63     H63     1.2834    2.4284   11.9246 H        1 ZINC000100015048    0.0600
64     H64     0.5229    1.9493   10.3882 H        1 ZINC000100015048    0.0700
65     H65    -0.8982    5.3899   12.4972 H        1 ZINC000100015048    0.0600
66     H66     0.4536    4.4376   13.1561 H        1 ZINC000100015048    0.0600
67     H67     0.6917    5.4299   11.6977 H        1 ZINC000100015048    0.0600
68     H68    -2.1629    3.2538   12.3421 H        1 ZINC000100015048    0.3700
69     H69    -2.1462   -2.6229   -0.6668 H        1 ZINC000100015048    0.0700
70     H70    -1.3958   -1.6495   -1.9580 H        1 ZINC000100015048    0.0800
71     H71    -0.7277   -4.5064   -1.5400 H        1 ZINC000100015048    0.3800
72     H72     2.1140   -2.4751   -1.0663 H        1 ZINC000100015048    0.0800
73     H73     1.0715   -1.4243   -2.0527 H        1 ZINC000100015048    0.0800
74     H74     1.5977   -0.7237    1.9883 H        1 ZINC000100015048    0.3800
@<TRIPOS>BOND
1     1     2     2
2     1     36    1
3     1     37    1
4     2     33    1
5     2     3     1
6     3     4     2
7     3     28    1
8     4     5     1
9     4     38    1
10    5     6     2
11    5     39    1
12    6     12    1
13    6     7     1
14    7     8     1
15    7     40    1
16    7     41    1
17    8     9     1
18    8     42    1
19    8     43    1
20    9     10    1
21    9     44    1
22    9     45    1
23    10    16    1
24    10    11    1
25    10    12    1
26    11    46    1
27    11    47    1
28    11    48    1
29    12    13    1
30    12    14    1
31    14    15    1
32    14    49    1
33    14    50    1
34    15    16    1
35    15    51    1
36    15    52    1
37    16    17    1
38    16    18    1
39    18    19    1
40    18    20    1
41    18    21    1
42    20    53    1
43    20    54    1
44    20    55    1
45    21    22    1
46    21    56    1
47    21    57    1
48    22    23    1
49    22    58    1
50    22    59    1
51    23    24    1
52    23    60    1
53    23    61    1
54    24    25    1
55    24    26    1
56    24    27    1
57    25    62    1
58    25    63    1
59    25    64    1
60    26    65    1
61    26    66    1
62    26    67    1
63    27    68    1
64    28    29    1
65    28    69    1
66    28    70    1
67    29    30    1
68    29    31    1
69    29    32    1
70    31    71    1
71    32    33    1
72    32    72    1
73    32    73    1
74    33    34    1
75    33    35    1
76    35    74    1
@<TRIPOS>SUBSTRUCTURE
1   ZINC000100015048 1     RESIDUE    1   A     ZIN   1
