@<TRIPOS>MOLECULE
ZINC000053683345
55    58    1     0     0
SMALL
USER_CHARGES
@<TRIPOS>ATOM
1      C1     -0.2878    1.4801   -0.1531 C.3      1 ZINC000053683345    0.0200
2      O2     -0.5678    0.0908   -0.3358 O.3      1 ZINC000053683345   -0.3000
3      C3     -0.0343   -0.5073   -1.4343 C.ar     1 ZINC000053683345    0.1100
4      C4     -0.2787   -1.8672   -1.6706 C.ar     1 ZINC000053683345    0.1600
5      O5     -1.0454   -2.5734   -0.7994 O.3      1 ZINC000053683345   -0.3000
6      C6     -1.2580   -3.9552   -1.0950 C.3      1 ZINC000053683345    0.0600
7      C7     -2.1383   -4.5792   -0.0103 C.3      1 ZINC000053683345   -0.1000
8      C8     -3.5320   -3.9460   -0.0547 C.3      1 ZINC000053683345   -0.1400
9      C9     -4.4300   -4.6296    0.9786 C.3      1 ZINC000053683345   -0.0100
10     N10    -4.5316   -6.0616    0.6729 N.4      1 ZINC000053683345   -0.3900
11     H11    -4.8813   -6.1800   -0.2661 H        1 ZINC000053683345    0.4200
12     C12    -5.4545   -6.6990    1.6215 C.3      1 ZINC000053683345   -0.0500
13     C13    -3.2096   -6.6896    0.7839 C.3      1 ZINC000053683345    0.0000
14     C14    -2.2646   -6.0854   -0.2569 C.3      1 ZINC000053683345   -0.1400
15     C15     0.2499   -2.4951   -2.7767 C.ar     1 ZINC000053683345   -0.1800
16     C16     1.0398   -1.7647   -3.6728 C.ar     1 ZINC000053683345    0.2000
17     N17     1.5775   -2.3294   -4.7655 N.ar     1 ZINC000053683345   -0.5400
18     C18     2.3132   -1.6195   -5.5873 C.ar     1 ZINC000053683345    0.3500
19     N19     2.5671   -0.3343   -5.3987 N.ar     1 ZINC000053683345   -0.5800
20     C20     2.0847    0.3212   -4.3509 C.ar     1 ZINC000053683345    0.4700
21     N21     2.3572    1.6617   -4.1670 N.pl3    1 ZINC000053683345   -0.6300
22     C22     3.0357    2.3803   -5.1580 C.ar     1 ZINC000053683345    0.1400
23     C23     3.0937    1.8906   -6.4554 C.ar     1 ZINC000053683345   -0.1000
24     C24     3.7637    2.6022   -7.4322 C.ar     1 ZINC000053683345   -0.0700
25     C25     4.3769    3.8019   -7.1191 C.ar     1 ZINC000053683345   -0.0900
26     Br26    5.2925    4.7716   -8.4597 Br       1 ZINC000053683345   -0.0300
27     C27     4.3213    4.2943   -5.8269 C.ar     1 ZINC000053683345   -0.1000
28     C28     3.6484    3.5897   -4.8461 C.ar     1 ZINC000053683345    0.0700
29     F29     3.5940    4.0701   -3.5846 F        1 ZINC000053683345   -0.1300
30     C30     1.2829   -0.3906   -3.4271 C.ar     1 ZINC000053683345   -0.1800
31     C31     0.7292    0.2252   -2.2984 C.ar     1 ZINC000053683345   -0.1400
32     H32     0.7893    1.6261   -0.0719 H        1 ZINC000053683345    0.0600
33     H33    -0.6674    2.0425   -1.0061 H        1 ZINC000053683345    0.0600
34     H34    -0.7718    1.8315    0.7582 H        1 ZINC000053683345    0.1100
35     H35    -1.7523   -4.0481   -2.0621 H        1 ZINC000053683345    0.0700
36     H36    -0.2987   -4.4718   -1.1262 H        1 ZINC000053683345    0.0800
37     H37    -1.6892   -4.4064    0.9677 H        1 ZINC000053683345    0.1000
38     H38    -3.4564   -2.8832    0.1750 H        1 ZINC000053683345    0.1200
39     H39    -3.9586   -4.0745   -1.0495 H        1 ZINC000053683345    0.0900
40     H40    -4.0026   -4.5002    1.9729 H        1 ZINC000053683345    0.1300
41     H41    -5.4230   -4.1810    0.9498 H        1 ZINC000053683345    0.1300
42     H42    -6.4386   -6.2381    1.5366 H        1 ZINC000053683345    0.1200
43     H43    -5.5307   -7.7626    1.3954 H        1 ZINC000053683345    0.1200
44     H44    -5.0790   -6.5694    2.6366 H        1 ZINC000053683345    0.1200
45     H45    -2.8082   -6.5164    1.7824 H        1 ZINC000053683345    0.1300
46     H46    -3.3016   -7.7619    0.6113 H        1 ZINC000053683345    0.1300
47     H47    -2.6650   -6.2583   -1.2559 H        1 ZINC000053683345    0.0900
48     H48    -1.2831   -6.5517   -0.1717 H        1 ZINC000053683345    0.1200
49     H49     0.0568   -3.5432   -2.9514 H        1 ZINC000053683345    0.1500
50     H50     2.7307   -2.1056   -6.4567 H        1 ZINC000053683345    0.2000
51     H51     2.0786    2.1058   -3.3509 H        1 ZINC000053683345    0.4200
52     H52     2.6158    0.9539   -6.7013 H        1 ZINC000053683345    0.1800
53     H53     3.8091    2.2209   -8.4416 H        1 ZINC000053683345    0.1500
54     H54     4.8006    5.2315   -5.5854 H        1 ZINC000053683345    0.1500
55     H55     0.9081    1.2734   -2.1095 H        1 ZINC000053683345    0.1400
@<TRIPOS>BOND
1     1     2     1
2     1     32    1
3     1     33    1
4     1     34    1
5     2     3     1
6     3     31    ar
7     3     4     ar
8     4     5     1
9     4     15    ar
10    5     6     1
11    6     7     1
12    6     35    1
13    6     36    1
14    7     14    1
15    7     8     1
16    7     37    1
17    8     9     1
18    8     38    1
19    8     39    1
20    9     10    1
21    9     40    1
22    9     41    1
23    10    11    1
24    10    12    1
25    10    13    1
26    12    42    1
27    12    43    1
28    12    44    1
29    13    14    1
30    13    45    1
31    13    46    1
32    14    47    1
33    14    48    1
34    15    16    ar
35    15    49    1
36    16    30    ar
37    16    17    ar
38    17    18    ar
39    18    19    ar
40    18    50    1
41    19    20    ar
42    20    21    1
43    20    30    ar
44    21    22    1
45    21    51    1
46    22    28    ar
47    22    23    ar
48    23    24    ar
49    23    52    1
50    24    25    ar
51    24    53    1
52    25    26    1
53    25    27    ar
54    27    28    ar
55    27    54    1
56    28    29    1
57    30    31    ar
58    31    55    1
@<TRIPOS>SUBSTRUCTURE
1   ZINC000053683345 1     RESIDUE    1   A     ZIN   1
