@<TRIPOS>MOLECULE
ZINC000001548097
58    61    1     0     0
SMALL
USER_CHARGES
@<TRIPOS>ATOM
1      C1     -0.0173    1.4248    0.0099 C.3      1 ZINC000001548097    0.0200
2      O2      0.0021   -0.0041    0.0020 O.3      1 ZINC000001548097   -0.3000
3      C3     -1.2011   -0.6379    0.0101 C.ar     1 ZINC000001548097    0.0900
4      C4     -2.3684    0.0980    0.0195 C.ar     1 ZINC000001548097   -0.1200
5      C5     -3.6058   -0.5584    0.0278 C.ar     1 ZINC000001548097   -0.1800
6      C6     -4.8518    0.2190    0.0374 C.2      1 ZINC000001548097    0.4000
7      C7     -6.1818   -0.4895    0.0463 C.3      1 ZINC000001548097   -0.2000
8      O8     -4.8103    1.4312    0.0380 O.2      1 ZINC000001548097   -0.4600
9      C9     -3.6513   -1.9573    0.0265 C.ar     1 ZINC000001548097   -0.0600
10     C10    -2.4813   -2.6838    0.0171 C.ar     1 ZINC000001548097   -0.1900
11     C11    -1.2550   -2.0321    0.0031 C.ar     1 ZINC000001548097    0.1400
12     O12    -0.1052   -2.7537   -0.0061 O.3      1 ZINC000001548097   -0.3000
13     C13    -0.2325   -4.1770   -0.0007 C.3      1 ZINC000001548097    0.0600
14     C14     1.1588   -4.8135   -0.0125 C.3      1 ZINC000001548097   -0.1200
15     C15     1.0225   -6.3374   -0.0067 C.3      1 ZINC000001548097    0.0600
16     N16     2.3583   -6.9485   -0.0181 N.3      1 ZINC000001548097   -0.5400
17     C17     3.2248   -6.3011   -1.0112 C.3      1 ZINC000001548097    0.0500
18     C18     4.6439   -6.8619   -0.8949 C.3      1 ZINC000001548097   -0.1100
19     C19     4.6104   -8.3748   -1.1284 C.3      1 ZINC000001548097   -0.0200
20     C20     5.9959   -8.9418   -0.9560 C.2      1 ZINC000001548097    0.1500
21     N21     6.7186   -8.8895    0.1205 N.2      1 ZINC000001548097   -0.2700
22     O22     7.9579   -9.5311   -0.1046 O.3      1 ZINC000001548097   -0.0900
23     C23     7.9967   -9.9955   -1.3698 C.ar     1 ZINC000001548097    0.1100
24     C24     8.9509  -10.6876   -2.1040 C.ar     1 ZINC000001548097   -0.1700
25     C25     8.6899  -11.0322   -3.4155 C.ar     1 ZINC000001548097    0.1600
26     F26     9.6189  -11.7055   -4.1288 F        1 ZINC000001548097   -0.1200
27     C27     7.4791  -10.6926   -4.0075 C.ar     1 ZINC000001548097   -0.1800
28     C28     6.5291  -10.0116   -3.3008 C.ar     1 ZINC000001548097   -0.0100
29     C29     6.7720   -9.6591   -1.9712 C.ar     1 ZINC000001548097   -0.2100
30     C30     3.6636   -9.0192   -0.1120 C.3      1 ZINC000001548097   -0.1100
31     C31     2.2729   -8.3959   -0.2511 C.3      1 ZINC000001548097    0.0600
32     H32     1.0053    1.8021    0.0021 H        1 ZINC000001548097    0.1000
33     H33    -0.5445    1.7859   -0.8732 H        1 ZINC000001548097    0.0600
34     H34    -0.5275    1.7763    0.9067 H        1 ZINC000001548097    0.0600
35     H35    -2.3280    1.1773    0.0208 H        1 ZINC000001548097    0.1500
36     H36    -6.4952   -0.6611    1.0761 H        1 ZINC000001548097    0.1000
37     H37    -6.9246    0.1256   -0.4618 H        1 ZINC000001548097    0.0900
38     H38    -6.0878   -1.4454   -0.4690 H        1 ZINC000001548097    0.0900
39     H39    -4.6035   -2.4669    0.0333 H        1 ZINC000001548097    0.1400
40     H40    -2.5177   -3.7632    0.0161 H        1 ZINC000001548097    0.1400
41     H41    -0.7679   -4.4905    0.8956 H        1 ZINC000001548097    0.0700
42     H42    -0.7854   -4.4957   -0.8843 H        1 ZINC000001548097    0.0600
43     H43     1.6941   -4.5000   -0.9087 H        1 ZINC000001548097    0.0800
44     H44     1.7116   -4.4948    0.8711 H        1 ZINC000001548097    0.0900
45     H45     0.4871   -6.6509    0.8895 H        1 ZINC000001548097    0.0800
46     H46     0.4696   -6.6561   -0.8904 H        1 ZINC000001548097    0.0400
47     H47     2.8384   -6.4952   -2.0118 H        1 ZINC000001548097    0.0400
48     H48     3.2432   -5.2261   -0.8314 H        1 ZINC000001548097    0.0900
49     H49     5.2832   -6.3924   -1.6426 H        1 ZINC000001548097    0.0700
50     H50     5.0361   -6.6559    0.1010 H        1 ZINC000001548097    0.0800
51     H51     4.2560   -8.5797   -2.1386 H        1 ZINC000001548097    0.1000
52     H52     9.8941  -10.9550   -1.6509 H        1 ZINC000001548097    0.1500
53     H53     7.2882  -10.9689   -5.0340 H        1 ZINC000001548097    0.1500
54     H54     5.5908   -9.7503   -3.7674 H        1 ZINC000001548097    0.1500
55     H55     3.6025  -10.0911   -0.3004 H        1 ZINC000001548097    0.0700
56     H56     4.0403   -8.8473    0.8962 H        1 ZINC000001548097    0.0800
57     H57     1.5999   -8.8425    0.4809 H        1 ZINC000001548097    0.0800
58     H58     1.8910   -8.5802   -1.2552 H        1 ZINC000001548097    0.0400
@<TRIPOS>BOND
1     1     2     1
2     1     32    1
3     1     33    1
4     1     34    1
5     2     3     1
6     3     11    ar
7     3     4     ar
8     4     5     ar
9     4     35    1
10    5     6     1
11    5     9     ar
12    6     7     1
13    6     8     2
14    7     36    1
15    7     37    1
16    7     38    1
17    9     10    ar
18    9     39    1
19    10    11    ar
20    10    40    1
21    11    12    1
22    12    13    1
23    13    14    1
24    13    41    1
25    13    42    1
26    14    15    1
27    14    43    1
28    14    44    1
29    15    16    1
30    15    45    1
31    15    46    1
32    16    31    1
33    16    17    1
34    17    18    1
35    17    47    1
36    17    48    1
37    18    19    1
38    18    49    1
39    18    50    1
40    19    20    1
41    19    30    1
42    19    51    1
43    20    29    1
44    20    21    2
45    21    22    1
46    22    23    1
47    23    29    ar
48    23    24    ar
49    24    25    ar
50    24    52    1
51    25    26    1
52    25    27    ar
53    27    28    ar
54    27    53    1
55    28    29    ar
56    28    54    1
57    30    31    1
58    30    55    1
59    30    56    1
60    31    57    1
61    31    58    1
@<TRIPOS>SUBSTRUCTURE
1   ZINC000001548097 1     RESIDUE    1   A     ZIN   1
