@<TRIPOS>MOLECULE
ZINC000003798537
68   70    0    0    0
SMALL
USER_CHARGES
NO_NAME
@<TRIPOS>ATOM
1 C1       -6.5930    -3.4951    -5.5864 C.3    1 <0>      -0.1500
2 C2       -5.4311    -3.8205    -4.6456 C.3    1 <0>       0.0500
3 O3       -5.0344    -2.6363    -3.9512 O.3    1 <0>      -0.2700
4 C4       -4.0089    -2.7526    -3.0717 C.ar   1 <0>       0.1600
5 C5       -3.3897    -3.9789    -2.8816 C.ar   1 <0>      -0.2100
6 C6       -2.3452    -4.0958    -1.9860 C.ar   1 <0>      -0.0400
7 C7       -1.6771    -5.4316    -1.7853 C.3    1 <0>      -0.1000
8 C8       -0.5316    -5.5710    -2.7546 C.2    1 <0>       0.5100
9 O9       -0.2824    -4.6739    -3.5319 O.2    1 <0>      -0.5100
10 N10       0.2158    -6.6925    -2.7578 N.am   1 <0>      -0.7300
11 C11       1.2569    -6.8761    -3.7720 C.3    1 <0>       0.1900
12 H12       1.7315    -5.9178    -3.9830 H      1 <0>       0.1000
13 C13       2.3060    -7.8616    -3.2533 C.3    1 <0>      -0.1100
14 C14       3.0203    -7.2562    -2.0433 C.3    1 <0>      -0.0900
15 C15       2.0336    -7.1254    -0.8813 C.3    1 <0>      -0.1700
16 C16       4.1795    -8.1644    -1.6283 C.3    1 <0>      -0.1500
17 C17       0.6383    -7.4191    -5.0343 C.ar   1 <0>      -0.1000
18 C18      -0.5208    -8.1669    -4.9698 C.ar   1 <0>      -0.1000
19 C19      -1.0889    -8.6660    -6.1278 C.ar   1 <0>      -0.1300
20 C20      -0.4992    -8.4180    -7.3535 C.ar   1 <0>      -0.1200
21 C21       0.6600    -7.6703    -7.4252 C.ar   1 <0>      -0.1300
22 C22       1.2303    -7.1631    -6.2648 C.ar   1 <0>       0.1800
23 N23       2.4025    -6.4067    -6.3337 N.pl3  1 <0>      -0.6700
24 C24       3.7181    -7.0558    -6.2539 C.3    1 <0>       0.1500
25 C25       4.5530    -6.6287    -7.4652 C.3    1 <0>      -0.1400
26 C26       4.6089    -5.1006    -7.5280 C.3    1 <0>      -0.1100
27 C27       3.1935    -4.5432    -7.6961 C.3    1 <0>      -0.1400
28 C28       2.3433    -4.9473    -6.4935 C.3    1 <0>       0.1500
29 C29      -1.9072    -2.9927    -1.2710 C.ar   1 <0>      -0.1600
30 C30      -2.5096    -1.7663    -1.4461 C.ar   1 <0>      -0.0500
31 C31      -3.5651    -1.6315    -2.3536 C.ar   1 <0>      -0.1600
32 C32      -4.2137    -0.3246    -2.5461 C.2    1 <0>       0.5200
33 O33      -3.8299     0.6482    -1.9112 O.co2  1 <0>      -0.7000
34 O34      -5.1367    -0.2109    -3.3410 O.co2  1 <0>      -0.6700
35 H35      -6.2770    -2.7403    -6.3065 H      1 <0>       0.0700
36 H36      -6.8955    -4.3985    -6.1160 H      1 <0>       0.0700
37 H37      -7.4341    -3.1148    -5.0068 H      1 <0>       0.0700
38 H38      -5.7471    -4.5753    -3.9255 H      1 <0>       0.0500
39 H39      -4.5899    -4.2009    -5.2252 H      1 <0>       0.0500
40 H40      -3.7251    -4.8438    -3.4346 H      1 <0>       0.1100
41 H41      -1.2999    -5.4995    -0.7649 H      1 <0>       0.1000
42 H42      -2.3995    -6.2290    -1.9595 H      1 <0>       0.1000
43 H43       0.0644    -7.3781    -2.0885 H      1 <0>       0.4000
44 H44       1.8178    -8.7908    -2.9595 H      1 <0>       0.0700
45 H45       3.0327    -8.0658    -4.0396 H      1 <0>       0.0800
46 H46       3.4064    -6.2709    -2.3048 H      1 <0>       0.0700
47 H47       1.2790    -6.3785    -1.1278 H      1 <0>       0.0700
48 H48       1.5499    -8.0863    -0.7056 H      1 <0>       0.0500
49 H49       2.5690    -6.8184     0.0171 H      1 <0>       0.0500
50 H50       4.8825    -8.2576    -2.4561 H      1 <0>       0.0500
51 H51       4.6884    -7.7331    -0.7663 H      1 <0>       0.0500
52 H52       3.7935    -9.1497    -1.3668 H      1 <0>       0.0500
53 H53      -0.9840    -8.3625    -4.0140 H      1 <0>       0.1200
54 H54      -1.9951    -9.2512    -6.0745 H      1 <0>       0.1200
55 H55      -0.9452    -8.8095    -8.2558 H      1 <0>       0.1200
56 H56       1.1204    -7.4772    -8.3829 H      1 <0>       0.1200
57 H57       4.2216    -6.7497    -5.3368 H      1 <0>       0.0500
58 H58       3.5923    -8.1385    -6.2602 H      1 <0>       0.0600
59 H59       5.5634    -7.0261    -7.3690 H      1 <0>       0.0600
60 H60       4.0954    -7.0138    -8.3765 H      1 <0>       0.0600
61 H61       5.0439    -4.7150    -6.6060 H      1 <0>       0.0600
62 H62       5.2228    -4.7942    -8.3749 H      1 <0>       0.0600
63 H63       3.2363    -3.4562    -7.7642 H      1 <0>       0.0700
64 H64       2.7487    -4.9479    -8.6052 H      1 <0>       0.0600
65 H65       1.3108    -4.6377    -6.6554 H      1 <0>       0.0700
66 H66       2.7330    -4.4710    -5.5939 H      1 <0>       0.0500
67 H67      -1.0897    -3.0950    -0.5727 H      1 <0>       0.1100
68 H68      -2.1647    -0.9095    -0.8865 H      1 <0>       0.1300
@<TRIPOS>BOND
1    1    2 1
2    1   35 1
3    1   36 1
4    1   37 1
5    2    3 1
6    2   38 1
7    2   39 1
8    3    4 1
9    4   31 ar
10    4    5 ar
11    5    6 ar
12    5   40 1
13    6    7 1
14    6   29 ar
15    7    8 1
16    7   41 1
17    7   42 1
18    8    9 2
19    8   10 am
20   10   11 1
21   10   43 1
22   11   12 1
23   11   13 1
24   11   17 1
25   13   14 1
26   13   44 1
27   13   45 1
28   14   15 1
29   14   16 1
30   14   46 1
31   15   47 1
32   15   48 1
33   15   49 1
34   16   50 1
35   16   51 1
36   16   52 1
37   17   22 ar
38   17   18 ar
39   18   19 ar
40   18   53 1
41   19   20 ar
42   19   54 1
43   20   21 ar
44   20   55 1
45   21   22 ar
46   21   56 1
47   22   23 1
48   23   28 1
49   23   24 1
50   24   25 1
51   24   57 1
52   24   58 1
53   25   26 1
54   25   59 1
55   25   60 1
56   26   27 1
57   26   61 1
58   26   62 1
59   27   28 1
60   27   63 1
61   27   64 1
62   28   65 1
63   28   66 1
64   29   30 ar
65   29   67 1
66   30   31 ar
67   30   68 1
68   31   32 1
69   32   33 ar
70   32   34 ar
