@<TRIPOS>MOLECULE
ZINC000253632968
98    104   1     0     0
SMALL
USER_CHARGES
@<TRIPOS>ATOM
1      C1      0.0394    2.4942   -0.4367 C.3      1 ZINC000253632968    0.0200
2      O2     -0.0384    1.0675   -0.4108 O.3      1 ZINC000253632968   -0.3100
3      C3      0.5557    0.3989   -1.4331 C.ar     1 ZINC000253632968    0.1500
4      C4      1.2078    1.1153   -2.4408 C.ar     1 ZINC000253632968   -0.2000
5      C5      1.8107    0.4694   -3.4765 C.ar     1 ZINC000253632968   -0.0300
6      C6      1.7812   -0.9309   -3.5387 C.ar     1 ZINC000253632968   -0.1400
7      C7      2.3996   -1.6285   -4.6026 C.ar     1 ZINC000253632968    0.2200
8      O8      3.0396   -0.9603   -5.5940 O.3      1 ZINC000253632968   -0.2900
9      C9      3.7046   -1.7487   -6.5835 C.3      1 ZINC000253632968    0.0900
10     H10     3.1233   -2.6489   -6.7844 H        1 ZINC000253632968    0.0900
11     C11     5.1024   -2.1395   -6.0775 C.3      1 ZINC000253632968   -0.1300
12     C12     6.1011   -1.3129   -6.8995 C.3      1 ZINC000253632968   -0.1000
13     H13     6.4174   -0.4477   -6.3130 H        1 ZINC000253632968    0.1000
14     C14     7.2968   -2.1202   -7.3034 C.2      1 ZINC000253632968    0.5300
15     O15     7.1237   -2.9704   -8.1538 O.2      1 ZINC000253632968   -0.4600
16     N16     8.4839   -1.9601   -6.7371 N.am     1 ZINC000253632968   -0.7000
17     C17     9.7858   -2.0630   -7.3703 C.3      1 ZINC000253632968    0.1400
18     C18     9.8288   -2.5795   -8.7877 C.2      1 ZINC000253632968    0.5700
19     O19    10.7735   -3.2405   -9.1639 O.2      1 ZINC000253632968   -0.6300
20     N20     8.8173   -2.3062   -9.6355 N.pl3    1 ZINC000253632968   -1.0800
21     S21     8.8644   -2.8730  -11.1908 S.o2     1 ZINC000253632968    2.5800
22     O22     9.9883   -2.2218  -11.7671 O.2      1 ZINC000253632968   -1.0200
23     O23     8.8294   -4.2865  -11.0499 O.2      1 ZINC000253632968   -1.0100
24     C24     7.3262   -2.2695  -11.9392 C.3      1 ZINC000253632968   -0.6500
25     C25     7.4418   -1.1970  -13.0243 C.3      1 ZINC000253632968   -0.1400
26     C26     7.0635   -2.6304  -13.4027 C.3      1 ZINC000253632968   -0.1400
27     C27    11.0389   -2.2925   -6.5225 C.3      1 ZINC000253632968   -0.1500
28     C28    10.7370   -0.8944   -7.0436 C.3      1 ZINC000253632968   -0.1300
29     H29    10.3680   -0.1588   -6.3224 H        1 ZINC000253632968    0.1100
30     C30    11.5133   -0.3241   -8.2002 C.2      1 ZINC000253632968   -0.1200
31     C31    10.9629    0.6681   -8.8792 C.2      1 ZINC000253632968   -0.1500
32     C32     9.6021    1.1538   -8.4472 C.3      1 ZINC000253632968   -0.0900
33     C33     8.9743    2.0272   -9.5329 C.3      1 ZINC000253632968   -0.1100
34     C34     7.7490    2.7356   -8.9504 C.3      1 ZINC000253632968   -0.1400
35     C35     6.5063    2.4433   -9.7866 C.3      1 ZINC000253632968    0.1200
36     N36     6.1428    1.0118   -9.6745 N.am     1 ZINC000253632968   -0.6100
37     C37     6.1965    0.1268  -10.8426 C.3      1 ZINC000253632968    0.0700
38     C38     5.7475    0.6017   -8.4376 C.2      1 ZINC000253632968    0.5300
39     O39     5.6933    1.4149   -7.5291 O.2      1 ZINC000253632968   -0.5400
40     C40     5.3669   -0.8205   -8.1579 C.3      1 ZINC000253632968   -0.1000
41     H41     5.6178   -1.4823   -8.9841 H        1 ZINC000253632968    0.1200
42     C42     3.8580   -0.9331   -7.8746 C.3      1 ZINC000253632968   -0.1000
43     C43     2.3350   -2.9972   -4.6047 C.ar     1 ZINC000253632968   -0.2800
44     C44     1.6679   -3.6642   -3.5682 C.ar     1 ZINC000253632968    0.2700
45     C45     1.6056   -5.1407   -3.5824 C.2      1 ZINC000253632968    0.1000
46     N46     1.0157   -5.8809   -2.6876 N.2      1 ZINC000253632968   -0.4200
47     C47     1.0614   -7.1794   -2.8624 C.2      1 ZINC000253632968    0.0700
48     C48     0.4166   -8.1402   -1.8970 C.3      1 ZINC000253632968   -0.0200
49     C49    -0.9833   -8.5028   -2.3968 C.3      1 ZINC000253632968   -0.1400
50     C50     1.2663   -9.4085   -1.7956 C.3      1 ZINC000253632968   -0.1500
51     C51     1.7166   -7.5988   -3.9526 C.2      1 ZINC000253632968   -0.2400
52     S52     2.3108   -6.1819   -4.8163 S.3      1 ZINC000253632968    0.1200
53     N53     1.0933   -3.0029   -2.5776 N.ar     1 ZINC000253632968   -0.4600
54     C54     1.1232   -1.6675   -2.5224 C.ar     1 ZINC000253632968    0.2000
55     C55     0.5135   -0.9767   -1.4622 C.ar     1 ZINC000253632968   -0.1100
56     C56    -0.1873   -1.7369   -0.3658 C.3      1 ZINC000253632968   -0.0900
57     H57     1.0850    2.8014   -0.4191 H        1 ZINC000253632968    0.0600
58     H58    -0.4338    2.8675   -1.3449 H        1 ZINC000253632968    0.0600
59     H59    -0.4738    2.9019    0.4343 H        1 ZINC000253632968    0.1000
60     H60     1.2334    2.1941   -2.3974 H        1 ZINC000253632968    0.1400
61     H61     2.3107    1.0348   -4.2490 H        1 ZINC000253632968    0.1400
62     H62     5.1954   -1.8947   -5.0184 H        1 ZINC000253632968    0.0900
63     H63     5.2729   -3.2044   -6.2305 H        1 ZINC000253632968    0.0900
64     H64     8.4812   -1.7520   -5.7710 H        1 ZINC000253632968    0.3800
65     H65     6.4664   -2.2193  -11.2711 H        1 ZINC000253632968    0.1500
66     H66     6.6580   -0.4409  -13.0701 H        1 ZINC000253632968    0.1000
67     H67     8.4421   -0.8541  -13.2884 H        1 ZINC000253632968    0.1100
68     H68     7.8151   -3.2305  -13.9157 H        1 ZINC000253632968    0.0900
69     H69     6.0309   -2.8173  -13.6974 H        1 ZINC000253632968    0.1000
70     H70    10.8927   -2.4793   -5.4580 H        1 ZINC000253632968    0.0900
71     H71    11.8614   -2.8389   -6.9849 H        1 ZINC000253632968    0.1100
72     H72    12.4859   -0.7049   -8.4652 H        1 ZINC000253632968    0.1100
73     H73    11.4749    1.1158   -9.7146 H        1 ZINC000253632968    0.1100
74     H74     8.9534    0.2974   -8.2587 H        1 ZINC000253632968    0.0900
75     H75     9.7016    1.7357   -7.5297 H        1 ZINC000253632968    0.0600
76     H76     9.6996    2.7713   -9.8644 H        1 ZINC000253632968    0.0500
77     H77     8.6799    1.4086  -10.3776 H        1 ZINC000253632968    0.0700
78     H78     7.5947    2.4018   -7.9245 H        1 ZINC000253632968    0.0800
79     H79     7.9332    3.8140   -8.9431 H        1 ZINC000253632968    0.0600
80     H80     5.6736    3.0527   -9.4275 H        1 ZINC000253632968    0.0700
81     H81     6.6997    2.6859  -10.8327 H        1 ZINC000253632968    0.0700
82     H82     7.1867   -0.3233  -10.9122 H        1 ZINC000253632968    0.0900
83     H83     5.4472   -0.6580  -10.7385 H        1 ZINC000253632968    0.0700
84     H84     5.9953    0.7038  -11.7452 H        1 ZINC000253632968    0.0700
85     H85     3.3630   -1.4454   -8.7004 H        1 ZINC000253632968    0.0900
86     H86     3.4294    0.0601   -7.7433 H        1 ZINC000253632968    0.0900
87     H87     2.7965   -3.5602   -5.4025 H        1 ZINC000253632968    0.1400
88     H88     0.3421   -7.6733   -0.9149 H        1 ZINC000253632968    0.0900
89     H89    -0.9088   -8.9697   -3.3789 H        1 ZINC000253632968    0.0600
90     H90    -1.4497   -9.1977   -1.6985 H        1 ZINC000253632968    0.0600
91     H91    -1.5887   -7.5992   -2.4690 H        1 ZINC000253632968    0.0600
92     H92     2.2635   -9.1502   -1.4395 H        1 ZINC000253632968    0.0600
93     H93     0.7998  -10.1035   -1.0973 H        1 ZINC000253632968    0.0600
94     H94     1.3407   -9.8754   -2.7777 H        1 ZINC000253632968    0.0600
95     H95     1.8535   -8.6272   -4.2529 H        1 ZINC000253632968    0.1800
96     H96     0.5218   -1.9620    0.4308 H        1 ZINC000253632968    0.0700
97     H97    -1.0014   -1.1316    0.0329 H        1 ZINC000253632968    0.0600
98     H98    -0.5892   -2.6668   -0.7680 H        1 ZINC000253632968    0.0800
@<TRIPOS>BOND
1     1     2     1
2     1     57    1
3     1     58    1
4     1     59    1
5     2     3     1
6     3     55    ar
7     3     4     ar
8     4     5     ar
9     4     60    1
10    5     6     ar
11    5     61    1
12    6     54    ar
13    6     7     ar
14    7     8     1
15    7     43    ar
16    8     9     1
17    9     10    1
18    9     42    1
19    9     11    1
20    11    12    1
21    11    62    1
22    11    63    1
23    12    13    1
24    12    40    1
25    12    14    1
26    14    15    2
27    14    16    am
28    16    17    1
29    16    64    1
30    17    28    1
31    17    18    1
32    17    27    1
33    18    19    2
34    18    20    1
35    20    21    1
36    21    22    2
37    21    23    2
38    21    24    1
39    24    26    1
40    24    25    1
41    24    65    1
42    25    26    1
43    25    66    1
44    25    67    1
45    26    68    1
46    26    69    1
47    27    28    1
48    27    70    1
49    27    71    1
50    28    29    1
51    28    30    1
52    30    31    2
53    30    72    1
54    31    32    1
55    31    73    1
56    32    33    1
57    32    74    1
58    32    75    1
59    33    34    1
60    33    76    1
61    33    77    1
62    34    35    1
63    34    78    1
64    34    79    1
65    35    36    1
66    35    80    1
67    35    81    1
68    36    37    1
69    36    38    am
70    37    82    1
71    37    83    1
72    37    84    1
73    38    39    2
74    38    40    1
75    40    41    1
76    40    42    1
77    42    85    1
78    42    86    1
79    43    44    ar
80    43    87    1
81    44    45    1
82    44    53    ar
83    45    52    1
84    45    46    2
85    46    47    1
86    47    48    1
87    47    51    2
88    48    49    1
89    48    50    1
90    48    88    1
91    49    89    1
92    49    90    1
93    49    91    1
94    50    92    1
95    50    93    1
96    50    94    1
97    51    52    1
98    51    95    1
99    53    54    ar
100   54    55    ar
101   55    56    1
102   56    96    1
103   56    97    1
104   56    98    1
@<TRIPOS>SUBSTRUCTURE
1   ZINC000253632968 1     RESIDUE    1   A     ZIN   1
