@<TRIPOS>MOLECULE
ZINC000000000941
41   42    0    0    0
SMALL
USER_CHARGES
NO_NAME
@<TRIPOS>ATOM
1 C1       -0.0187     1.5258     0.0104 C.3    1 <0>      -0.1500
2 C2        0.0021    -0.0041     0.0020 C.3    1 <0>       0.0800
3 C3        0.7421    -0.5109     1.2415 C.3    1 <0>      -0.1400
4 C4       -1.3789    -0.5136     0.0125 C.1    1 <0>       0.2100
5 N5       -2.4446    -0.9068     0.0205 N.1    1 <0>      -0.4200
6 C6        0.7074    -0.4901    -1.2379 C.ar   1 <0>      -0.0800
7 C7        0.8451    -1.8461    -1.4681 C.ar   1 <0>      -0.0800
8 C8        1.4921    -2.2919    -2.6054 C.ar   1 <0>      -0.0800
9 C9        1.6426    -3.7703    -2.8561 C.3    1 <0>       0.0800
10 C10       2.3900    -3.9908    -4.1728 C.3    1 <0>      -0.1500
11 C11       2.4322    -4.4043    -1.7092 C.3    1 <0>      -0.1400
12 C12       0.3109    -4.3922    -2.9377 C.1    1 <0>       0.2100
13 N13      -0.7168    -4.8721    -3.0007 N.1    1 <0>      -0.4200
14 C14       2.0007    -1.3817    -3.5130 C.ar   1 <0>      -0.0600
15 C15       1.8627    -0.0256    -3.2830 C.ar   1 <0>      -0.1100
16 C16       2.4175     0.9667    -4.2721 C.3    1 <0>       0.1700
17 N17       1.3956     1.2815    -5.2736 N.pl3  1 <0>      -0.3800
18 C18       0.9417     2.5025    -5.6053 C.2    1 <0>       0.2500
19 N19       0.0359     2.3593    -6.5384 N.2    1 <0>      -0.5500
20 C20      -0.1152     1.0673    -6.8271 C.2    1 <0>       0.2000
21 N21       0.6999     0.3679    -6.0822 N.2    1 <0>      -0.3100
22 C22       1.2119     0.4202    -2.1478 C.ar   1 <0>      -0.0800
23 H23       1.0039     1.9031     0.0027 H      1 <0>       0.0800
24 H24      -0.5459     1.8868    -0.8726 H      1 <0>       0.0700
25 H25      -0.5289     1.8773     0.9072 H      1 <0>       0.0700
26 H26       0.2319    -0.1594     2.1383 H      1 <0>       0.0700
27 H27       0.7568    -1.6008     1.2356 H      1 <0>       0.0700
28 H28       1.7647    -0.1336     1.2338 H      1 <0>       0.0800
29 H29       0.4474    -2.5573    -0.7592 H      1 <0>       0.1200
30 H30       3.3761    -3.5303    -4.1124 H      1 <0>       0.0800
31 H31       2.4989    -5.0601    -4.3542 H      1 <0>       0.0700
32 H32       1.8275    -3.5391    -4.9899 H      1 <0>       0.0700
33 H33       1.8997    -4.2472    -0.7711 H      1 <0>       0.0700
34 H34       2.5410    -5.4736    -1.8905 H      1 <0>       0.0700
35 H35       3.4183    -3.9438    -1.6487 H      1 <0>       0.0800
36 H36       2.5062    -1.7300    -4.4015 H      1 <0>       0.1400
37 H37       2.7065     1.8783    -3.7491 H      1 <0>       0.1100
38 H38       3.2901     0.5388    -4.7655 H      1 <0>       0.1000
39 H39       1.2675     3.4385    -5.1760 H      1 <0>       0.2200
40 H40      -0.7973     0.6638    -7.5608 H      1 <0>       0.2200
41 H41       1.1040     1.4796    -1.9681 H      1 <0>       0.1400
@<TRIPOS>BOND
1    1    2 1
2    1   23 1
3    1   24 1
4    1   25 1
5    2    3 1
6    2    4 1
7    2    6 1
8    3   26 1
9    3   27 1
10    3   28 1
11    4    5 3
12    6   22 ar
13    6    7 ar
14    7    8 ar
15    7   29 1
16    8    9 1
17    8   14 ar
18    9   10 1
19    9   11 1
20    9   12 1
21   10   30 1
22   10   31 1
23   10   32 1
24   11   33 1
25   11   34 1
26   11   35 1
27   12   13 3
28   14   15 ar
29   14   36 1
30   15   16 1
31   15   22 ar
32   16   17 1
33   16   37 1
34   16   38 1
35   17   21 1
36   17   18 1
37   18   19 2
38   18   39 1
39   19   20 1
40   20   21 2
41   20   40 1
42   22   41 1
