@<TRIPOS>MOLECULE
ZINC000000056646
39   40    0    0    0
SMALL
USER_CHARGES
NO_NAME
@<TRIPOS>ATOM
1 C1       -0.0187     1.5258     0.0104 C.3    1 <0>      -0.1900
2 C2        0.0021    -0.0041     0.0020 C.3    1 <0>       0.0200
3 C3        0.7182    -0.4975    -1.2568 C.3    1 <0>      -0.1900
4 N4        0.7126    -0.4907     1.1921 N.4    1 <0>      -0.5000
5 H5        0.7982    -1.4950     1.1455 H      1 <0>       0.4300
6 H6        1.6317    -0.0761     1.2281 H      1 <0>       0.4300
7 C7       -0.0398    -0.1189     2.3978 C.3    1 <0>      -0.0500
8 C8        0.7001    -0.6257     3.6373 C.3    1 <0>       0.0900
9 H9        0.8710    -1.6983     3.5452 H      1 <0>       0.1300
10 O10       1.9549     0.0485     3.7518 O.3    1 <0>      -0.5400
11 C11      -0.1432    -0.3488     4.8835 C.3    1 <0>       0.0300
12 O12       0.4925    -0.9247     6.0264 O.3    1 <0>      -0.3000
13 C13      -0.1314    -0.7684     7.2234 C.ar   1 <0>       0.1700
14 C14       0.4350    -1.3006     8.3881 C.ar   1 <0>      -0.1300
15 C15       1.6551    -2.0605     8.6706 C.2    1 <0>      -0.1900
16 C16       1.6718    -2.2989     9.9912 C.2    1 <0>       0.0500
17 N17       0.5610    -1.7531    10.5773 N.pl3  1 <0>      -0.5900
18 C18      -0.2158    -1.1352     9.6230 C.ar   1 <0>       0.1300
19 C19      -1.4216    -0.4419     9.6740 C.ar   1 <0>      -0.1600
20 C20      -1.9685     0.0755     8.5203 C.ar   1 <0>      -0.0600
21 C21      -1.3259    -0.0785     7.3002 C.ar   1 <0>      -0.2400
22 H22       1.0039     1.9031     0.0027 H      1 <0>       0.0800
23 H23      -0.5459     1.8868    -0.8726 H      1 <0>       0.1100
24 H24      -0.5289     1.8773     0.9072 H      1 <0>       0.0800
25 H25      -1.0205    -0.3814     0.0098 H      1 <0>       0.1400
26 H26       1.7408    -0.1202    -1.2645 H      1 <0>       0.0800
27 H27       0.7330    -1.5874    -1.2628 H      1 <0>       0.0800
28 H28       0.1910    -0.1364    -2.1398 H      1 <0>       0.1100
29 H29      -0.1324     0.9660     2.4481 H      1 <0>       0.1400
30 H30      -1.0328    -0.5668     2.3589 H      1 <0>       0.1500
31 H31       1.8791     1.0087     3.8375 H      1 <0>       0.3900
32 H32      -0.2395     0.7276     5.0252 H      1 <0>       0.0800
33 H33      -1.1325    -0.7887     4.7578 H      1 <0>       0.0800
34 H34       2.3998    -2.3703     7.9523 H      1 <0>       0.1500
35 H35       2.4459    -2.8409    10.5140 H      1 <0>       0.1800
36 H36       0.3526    -1.7953    11.5237 H      1 <0>       0.4200
37 H37      -1.9288    -0.3098    10.6182 H      1 <0>       0.1300
38 H38      -2.9046     0.6121     8.5670 H      1 <0>       0.1300
39 H39      -1.7673     0.3333     6.4047 H      1 <0>       0.1200
@<TRIPOS>BOND
1    1    2 1
2    1   22 1
3    1   23 1
4    1   24 1
5    2    3 1
6    2    4 1
7    2   25 1
8    3   26 1
9    3   27 1
10    3   28 1
11    4    5 1
12    4    6 1
13    4    7 1
14    7    8 1
15    7   29 1
16    7   30 1
17    8    9 1
18    8   10 1
19    8   11 1
20   10   31 1
21   11   12 1
22   11   32 1
23   11   33 1
24   12   13 1
25   13   21 ar
26   13   14 ar
27   14   18 ar
28   14   15 1
29   15   16 2
30   15   34 1
31   16   17 1
32   16   35 1
33   17   18 1
34   17   36 1
35   18   19 ar
36   19   20 ar
37   19   37 1
38   20   21 ar
39   20   38 1
40   21   39 1
