@<TRIPOS>MOLECULE
ZINC000000001132
19    19    1     0     0
SMALL
USER_CHARGES
@<TRIPOS>ATOM
1      C1     -0.0184    1.5028    0.0103 C.3      1 ZINC000000001132   -0.1200
2      C2      0.0021   -0.0041    0.0020 C.ar     1 ZINC000000001132   -0.0500
3      C3      0.0057   -0.6878   -1.1984 C.ar     1 ZINC000000001132   -0.1400
4      C4      0.0245   -2.0748   -1.2055 C.ar     1 ZINC000000001132    0.1200
5      O5      0.0286   -2.7493   -2.3856 O.3      1 ZINC000000001132   -0.5000
6      C6      0.0397   -2.7727   -0.0067 C.ar     1 ZINC000000001132   -0.1400
7      C7      0.0360   -2.0854    1.1917 C.ar     1 ZINC000000001132   -0.0500
8      C8      0.0529   -2.8430    2.4943 C.3      1 ZINC000000001132   -0.1200
9      C9      0.0229   -0.7018    1.1967 C.ar     1 ZINC000000001132   -0.0500
10     Cl10    0.0183    0.1596    2.7039 Cl       1 ZINC000000001132   -0.0600
11     H11     1.0042    1.8801    0.0026 H        1 ZINC000000001132    0.0800
12     H12    -0.5455    1.8639   -0.8728 H        1 ZINC000000001132    0.0700
13     H13    -0.5286    1.8543    0.9071 H        1 ZINC000000001132    0.0800
14     H14    -0.0064   -0.1427   -2.1307 H        1 ZINC000000001132    0.1400
15     H15     0.9131   -2.9324   -2.7309 H        1 ZINC000000001132    0.3900
16     H16     0.0540   -3.8526   -0.0102 H        1 ZINC000000001132    0.1400
17     H17     1.0845   -3.0114    2.8033 H        1 ZINC000000001132    0.0800
18     H18    -0.4653   -2.2636    3.2584 H        1 ZINC000000001132    0.0800
19     H19    -0.4483   -3.8021    2.3634 H        1 ZINC000000001132    0.0700
@<TRIPOS>BOND
1     1     2     1
2     1     11    1
3     1     12    1
4     1     13    1
5     2     9     ar
6     2     3     ar
7     3     4     ar
8     3     14    1
9     4     5     1
10    4     6     ar
11    5     15    1
12    6     7     ar
13    6     16    1
14    7     8     1
15    7     9     ar
16    8     17    1
17    8     18    1
18    8     19    1
19    9     10    1
@<TRIPOS>SUBSTRUCTURE
1   ZINC000000001132 1     RESIDUE    1   A     ZIN   1
