@<TRIPOS>MOLECULE
ZINC000000002055
16    16    1     0     0
SMALL
USER_CHARGES
@<TRIPOS>ATOM
1      N1     -0.0162    1.3436    0.0094 N.am     1 ZINC000000002055   -0.8800
2      C2      0.0021   -0.0041    0.0020 C.2      1 ZINC000000002055    0.5600
3      O3      1.0632   -0.5976   -0.0113 O.2      1 ZINC000000002055   -0.5300
4      C4     -1.2655   -0.7591    0.0101 C.ar     1 ZINC000000002055   -0.3100
5      C5     -2.4866   -0.0813    0.0195 C.ar     1 ZINC000000002055   -0.0300
6      C6     -3.6673   -0.7925    0.0265 C.ar     1 ZINC000000002055   -0.2800
7      C7     -3.6489   -2.1774    0.0242 C.ar     1 ZINC000000002055   -0.0600
8      C8     -2.4484   -2.8601    0.0149 C.ar     1 ZINC000000002055   -0.2600
9      C9     -1.2511   -2.1607    0.0024 C.ar     1 ZINC000000002055    0.3100
10     O10    -0.0712   -2.8300   -0.0067 O.3      1 ZINC000000002055   -0.6800
11     H11     0.8172    1.8399    0.0041 H        1 ZINC000000002055    0.3900
12     H12    -0.8627    1.8171    0.0160 H        1 ZINC000000002055    0.3900
13     H13    -2.5058    0.9985    0.0217 H        1 ZINC000000002055    0.0900
14     H14    -4.6110   -0.2675    0.0342 H        1 ZINC000000002055    0.0900
15     H15    -4.5787   -2.7266    0.0301 H        1 ZINC000000002055    0.0900
16     H16    -2.4422   -3.9401    0.0132 H        1 ZINC000000002055    0.1000
@<TRIPOS>BOND
1     1     2     am
2     1     11    1
3     1     12    1
4     2     3     2
5     2     4     1
6     4     9     ar
7     4     5     ar
8     5     6     ar
9     5     13    1
10    6     7     ar
11    6     14    1
12    7     8     ar
13    7     15    1
14    8     9     ar
15    8     16    1
16    9     10    1
@<TRIPOS>SUBSTRUCTURE
1   ZINC000000002055 1     RESIDUE    1   A     ZIN   1
