@<TRIPOS>MOLECULE
ZINC000052509463
56   58    0    0    0
SMALL
USER_CHARGES
NO_NAME
@<TRIPOS>ATOM
1 C1       -0.1502     1.6665    -0.0671 C.3    1 <0>      -0.1400
2 C2       -0.0136     0.1441     0.0001 C.3    1 <0>      -0.0100
3 C3        0.7258    -0.2455     1.2817 C.3    1 <0>      -0.1400
4 C4       -1.4046    -0.4932     0.0000 C.3    1 <0>      -0.1400
5 C5        0.7626    -0.3439    -1.1958 C.ar   1 <0>      -0.1400
6 C6        1.2276     0.5597    -2.1321 C.ar   1 <0>      -0.0900
7 C7        1.9396     0.1162    -3.2299 C.ar   1 <0>      -0.1300
8 C8        2.4456     1.1045    -4.2488 C.3    1 <0>      -0.0200
9 C9        2.0664     2.5223    -3.8161 C.3    1 <0>      -0.1400
10 C10       3.9679     0.9936    -4.3547 C.3    1 <0>      -0.1500
11 C11       1.8161     0.8012    -5.6099 C.3    1 <0>      -0.1500
12 C12       2.1898    -1.2402    -3.3947 C.ar   1 <0>       0.1900
13 N13       2.9109    -1.6892    -4.5057 N.am   1 <0>      -0.6800
14 C14       3.2545    -2.9886    -4.6057 C.2    1 <0>       0.5700
15 O15       2.8434    -3.7910    -3.7894 O.2    1 <0>      -0.5000
16 C16       4.1282    -3.4371    -5.7040 C.ar   1 <0>      -0.4000
17 C17       4.6117    -2.5156    -6.6472 C.ar   1 <0>       0.2100
18 N18       5.3888    -2.8862    -7.6322 N.ar   1 <0>      -0.5800
19 C19       5.7665    -4.1612    -7.7960 C.ar   1 <0>       0.1800
20 C20       6.6021    -4.5318    -8.8624 C.ar   1 <0>      -0.1400
21 C21       6.9744    -5.8336    -9.0104 C.ar   1 <0>      -0.0900
22 C22       6.5391    -6.8106    -8.1191 C.ar   1 <0>      -0.1800
23 C23       5.7273    -6.4885    -7.0731 C.ar   1 <0>      -0.0400
24 C24       5.3259    -5.1569    -6.8911 C.ar   1 <0>      -0.1900
25 C25       4.4895    -4.7850    -5.8146 C.ar   1 <0>       0.3500
26 O26       4.0483    -5.7020    -4.9236 O.3    1 <0>      -0.6200
27 C27       1.7234    -2.1494    -2.4551 C.ar   1 <0>      -0.2000
28 C28       1.0145    -1.6999    -1.3524 C.ar   1 <0>       0.1300
29 O29       0.5566    -2.5874    -0.4307 O.3    1 <0>      -0.4900
30 H30       0.8407     2.1206    -0.0670 H      1 <0>       0.0600
31 H31      -0.6770     1.9441    -0.9801 H      1 <0>       0.0600
32 H32      -0.7117     2.0195     0.7980 H      1 <0>       0.0500
33 H33       0.1643     0.1074     2.1467 H      1 <0>       0.0500
34 H34       0.8230    -1.3301     1.3296 H      1 <0>       0.0600
35 H35       1.7167     0.2085     1.2818 H      1 <0>       0.0500
36 H36      -1.9313    -0.2156    -0.9130 H      1 <0>       0.0500
37 H37      -1.3073    -1.5778     0.0479 H      1 <0>       0.0700
38 H38      -1.9661    -0.1403     0.8650 H      1 <0>       0.0500
39 H39       1.0337     1.6146    -2.0057 H      1 <0>       0.1300
40 H40       2.5148     2.7384    -2.8464 H      1 <0>       0.0600
41 H41       2.4324     3.2372    -4.5530 H      1 <0>       0.0600
42 H42       0.9819     2.6013    -3.7406 H      1 <0>       0.0600
43 H43       4.2341     0.0128    -4.7488 H      1 <0>       0.0600
44 H44       4.3429     1.7681    -5.0238 H      1 <0>       0.0600
45 H45       4.4111     1.1209    -3.3671 H      1 <0>       0.0600
46 H46       0.7430     0.9866    -5.5634 H      1 <0>       0.0600
47 H47       2.2633     1.4438    -6.3683 H      1 <0>       0.0600
48 H48       1.9937    -0.2429    -5.8677 H      1 <0>       0.0600
49 H49       3.1638    -1.0655    -5.2042 H      1 <0>       0.4100
50 H50       4.3348    -1.4756    -6.5573 H      1 <0>       0.1200
51 H51       6.9483    -3.7865    -9.5632 H      1 <0>       0.1200
52 H52       7.6172    -6.1124    -9.8323 H      1 <0>       0.1100
53 H53       6.8482    -7.8360    -8.2586 H      1 <0>       0.1100
54 H54       5.3948    -7.2543    -6.3880 H      1 <0>       0.1200
55 H55       1.9165    -3.2045    -2.5809 H      1 <0>       0.1900
56 H56       1.1786    -2.7638     0.2884 H      1 <0>       0.3800
@<TRIPOS>BOND
1    1    2 1
2    1   30 1
3    1   31 1
4    1   32 1
5    2    3 1
6    2    4 1
7    2    5 1
8    3   33 1
9    3   34 1
10    3   35 1
11    4   36 1
12    4   37 1
13    4   38 1
14    5   28 ar
15    5    6 ar
16    6    7 ar
17    6   39 1
18    7    8 1
19    7   12 ar
20    8    9 1
21    8   10 1
22    8   11 1
23    9   40 1
24    9   41 1
25    9   42 1
26   10   43 1
27   10   44 1
28   10   45 1
29   11   46 1
30   11   47 1
31   11   48 1
32   12   13 1
33   12   27 ar
34   13   14 am
35   13   49 1
36   14   15 2
37   14   16 1
38   16   25 ar
39   16   17 ar
40   17   18 ar
41   17   50 1
42   18   19 ar
43   19   24 ar
44   19   20 ar
45   20   21 ar
46   20   51 1
47   21   22 ar
48   21   52 1
49   22   23 ar
50   22   53 1
51   23   24 ar
52   23   54 1
53   24   25 ar
54   25   26 1
55   27   28 ar
56   27   55 1
57   28   29 1
58   29   56 1
