@<TRIPOS>MOLECULE
ZINC000011615928
75    78    1     0     0
SMALL
USER_CHARGES
@<TRIPOS>ATOM
1      C1     -0.1442    1.5735   -0.5872 C.3      1 ZINC000011615928   -0.1500
2      C2     -0.1161    0.0445   -0.6359 C.3      1 ZINC000011615928   -0.0400
3      C3      0.9158   -0.4787    0.3652 C.3      1 ZINC000011615928   -0.1500
4      C4     -1.4781   -0.4944   -0.2814 C.2      1 ZINC000011615928    0.1000
5      C5     -2.1327   -0.2777    0.8987 C.2      1 ZINC000011615928   -0.2100
6      C6     -1.6504    0.5120    2.0426 C.2      1 ZINC000011615928    0.6100
7      O7     -1.8986    1.7010    2.1088 O.2      1 ZINC000011615928   -0.5100
8      N8     -0.9336   -0.0821    3.0172 N.am     1 ZINC000011615928   -0.6700
9      C9     -0.3941    0.6848    4.0550 C.ar     1 ZINC000011615928    0.1500
10     C10     0.8424    0.3544    4.5942 C.ar     1 ZINC000011615928   -0.1500
11     C11     1.3726    1.1140    5.6186 C.ar     1 ZINC000011615928   -0.1000
12     C12     0.6735    2.2023    6.1076 C.ar     1 ZINC000011615928   -0.1400
13     C13    -0.5579    2.5340    5.5729 C.ar     1 ZINC000011615928   -0.1000
14     C14    -1.0911    1.7819    4.5445 C.ar     1 ZINC000011615928   -0.1200
15     C15    -3.4164   -0.9909    0.7974 C.2      1 ZINC000011615928   -0.0800
16     C16    -4.4827   -1.0600    1.8219 C.ar     1 ZINC000011615928   -0.0100
17     C17    -4.7845   -2.2748    2.4380 C.ar     1 ZINC000011615928   -0.1000
18     C18    -5.7791   -2.3325    3.3924 C.ar     1 ZINC000011615928   -0.1200
19     C19    -6.4770   -1.1891    3.7385 C.ar     1 ZINC000011615928   -0.1200
20     C20    -6.1825    0.0186    3.1312 C.ar     1 ZINC000011615928   -0.1200
21     C21    -5.1862    0.0906    2.1794 C.ar     1 ZINC000011615928   -0.1000
22     C22    -3.4210   -1.5818   -0.4514 C.2      1 ZINC000011615928    0.0700
23     C23    -4.5066   -2.4098   -1.0143 C.ar     1 ZINC000011615928   -0.0300
24     C24    -5.8073   -1.9064   -1.0852 C.ar     1 ZINC000011615928   -0.0600
25     C25    -6.8169   -2.6839   -1.6123 C.ar     1 ZINC000011615928   -0.1500
26     C26    -6.5427   -3.9626   -2.0711 C.ar     1 ZINC000011615928    0.1100
27     F27    -7.5357   -4.7199   -2.5865 F        1 ZINC000011615928   -0.1400
28     C28    -5.2537   -4.4672   -2.0037 C.ar     1 ZINC000011615928   -0.1500
29     C29    -4.2352   -3.6970   -1.4831 C.ar     1 ZINC000011615928   -0.0800
30     N30    -2.2455   -1.2612   -1.0796 N.pl3    1 ZINC000011615928   -0.4200
31     C31    -1.8720   -1.6996   -2.4266 C.3      1 ZINC000011615928    0.1000
32     C32    -2.2568   -0.6193   -3.4395 C.3      1 ZINC000011615928   -0.1700
33     C33    -1.9830   -1.1279   -4.8563 C.3      1 ZINC000011615928    0.1200
34     H34    -2.5037   -2.0731   -5.0100 H        1 ZINC000011615928    0.1000
35     O35    -0.5781   -1.3245   -5.0286 O.3      1 ZINC000011615928   -0.5400
36     C36    -2.4826   -0.0993   -5.8728 C.3      1 ZINC000011615928   -0.1900
37     C37    -2.3229   -0.6608   -7.2871 C.3      1 ZINC000011615928    0.1400
38     H38    -2.8317   -1.6223   -7.3558 H        1 ZINC000011615928    0.0900
39     O39    -0.9344   -0.8348   -7.5765 O.3      1 ZINC000011615928   -0.5300
40     C40    -2.9357    0.3137   -8.2949 C.3      1 ZINC000011615928   -0.2200
41     C41    -2.8889   -0.2937   -9.6733 C.2      1 ZINC000011615928    0.4900
42     O42    -2.4098   -1.4031   -9.8346 O.co2    1 ZINC000011615928   -0.6800
43     O43    -3.3301    0.3244  -10.6271 O.co2    1 ZINC000011615928   -0.7100
44     H44     0.8409    1.9633   -0.8436 H        1 ZINC000011615928    0.0600
45     H45    -0.8794    1.9463   -1.3004 H        1 ZINC000011615928    0.0600
46     H46    -0.4141    1.9002    0.4170 H        1 ZINC000011615928    0.0700
47     H47     0.1538   -0.2821   -1.6401 H        1 ZINC000011615928    0.0800
48     H48     0.6459   -0.1521    1.3695 H        1 ZINC000011615928    0.0600
49     H49     0.9358   -1.5680    0.3305 H        1 ZINC000011615928    0.0600
50     H50     1.9009   -0.0889    0.1088 H        1 ZINC000011615928    0.0700
51     H51    -0.7919   -1.0415    2.9989 H        1 ZINC000011615928    0.4100
52     H52     1.3886   -0.4958    4.2132 H        1 ZINC000011615928    0.1200
53     H53     2.3341    0.8576    6.0384 H        1 ZINC000011615928    0.1200
54     H54     1.0899    2.7943    6.9092 H        1 ZINC000011615928    0.1200
55     H55    -1.1014    3.3845    5.9571 H        1 ZINC000011615928    0.1200
56     H56    -2.0527    2.0416    4.1271 H        1 ZINC000011615928    0.1400
57     H57    -4.2409   -3.1681    2.1681 H        1 ZINC000011615928    0.1200
58     H58    -6.0137   -3.2723    3.8701 H        1 ZINC000011615928    0.1200
59     H59    -7.2552   -1.2396    4.4857 H        1 ZINC000011615928    0.1200
60     H60    -6.7310    0.9076    3.4054 H        1 ZINC000011615928    0.1200
61     H61    -4.9569    1.0340    1.7063 H        1 ZINC000011615928    0.1200
62     H62    -6.0222   -0.9102   -0.7276 H        1 ZINC000011615928    0.1300
63     H63    -7.8233   -2.2958   -1.6673 H        1 ZINC000011615928    0.1400
64     H64    -5.0457   -5.4642   -2.3631 H        1 ZINC000011615928    0.1400
65     H65    -3.2310   -4.0911   -1.4314 H        1 ZINC000011615928    0.1300
66     H66    -0.7962   -1.8698   -2.4681 H        1 ZINC000011615928    0.1000
67     H67    -2.3958   -2.6251   -2.6658 H        1 ZINC000011615928    0.1000
68     H68    -3.3163   -0.3851   -3.3360 H        1 ZINC000011615928    0.0800
69     H69    -1.6665    0.2783   -3.2553 H        1 ZINC000011615928    0.0700
70     H70    -0.0509   -0.5231   -4.9063 H        1 ZINC000011615928    0.3700
71     H71    -3.5342    0.1168   -5.6842 H        1 ZINC000011615928    0.0700
72     H72    -1.9006    0.8175   -5.7780 H        1 ZINC000011615928    0.0600
73     H73    -0.4183   -0.0182   -7.5338 H        1 ZINC000011615928    0.3500
74     H74    -3.9715    0.5154   -8.0217 H        1 ZINC000011615928    0.0600
75     H75    -2.3704    1.2456   -8.2891 H        1 ZINC000011615928    0.0600
@<TRIPOS>BOND
1     1     2     1
2     1     44    1
3     1     45    1
4     1     46    1
5     2     3     1
6     2     4     1
7     2     47    1
8     3     48    1
9     3     49    1
10    3     50    1
11    4     30    1
12    4     5     2
13    5     6     1
14    5     15    1
15    6     7     2
16    6     8     am
17    8     9     1
18    8     51    1
19    9     14    ar
20    9     10    ar
21    10    11    ar
22    10    52    1
23    11    12    ar
24    11    53    1
25    12    13    ar
26    12    54    1
27    13    14    ar
28    13    55    1
29    14    56    1
30    15    16    1
31    15    22    2
32    16    21    ar
33    16    17    ar
34    17    18    ar
35    17    57    1
36    18    19    ar
37    18    58    1
38    19    20    ar
39    19    59    1
40    20    21    ar
41    20    60    1
42    21    61    1
43    22    23    1
44    22    30    1
45    23    29    ar
46    23    24    ar
47    24    25    ar
48    24    62    1
49    25    26    ar
50    25    63    1
51    26    27    1
52    26    28    ar
53    28    29    ar
54    28    64    1
55    29    65    1
56    30    31    1
57    31    32    1
58    31    66    1
59    31    67    1
60    32    33    1
61    32    68    1
62    32    69    1
63    33    34    1
64    33    35    1
65    33    36    1
66    35    70    1
67    36    37    1
68    36    71    1
69    36    72    1
70    37    38    1
71    37    39    1
72    37    40    1
73    39    73    1
74    40    41    1
75    40    74    1
76    40    75    1
77    41    42    ar
78    41    43    ar
@<TRIPOS>SUBSTRUCTURE
1   ZINC000011615928 1     RESIDUE    1   A     ZIN   1
