@<TRIPOS>MOLECULE
ZINC000003785268
68    69    1     0     0
SMALL
USER_CHARGES
@<TRIPOS>ATOM
1      O1     -0.0173    1.4248    0.0099 O.3      1 ZINC000003785268   -0.5800
2      C2      0.0021   -0.0041    0.0020 C.3      1 ZINC000003785268    0.1200
3      C3     -1.4117   -0.5257    0.0127 C.ar     1 ZINC000003785268   -0.1100
4      C4     -2.4741    0.3570    0.0219 C.ar     1 ZINC000003785268   -0.0600
5      C5     -3.7717   -0.1210    0.0322 C.ar     1 ZINC000003785268   -0.1600
6      C6     -4.9289    0.8443    0.0422 C.3      1 ZINC000003785268    0.1400
7      H7     -4.5864    1.8184    0.3915 H        1 ZINC000003785268    0.1300
8      O8     -5.9486    0.3564    0.9163 O.3      1 ZINC000003785268   -0.5500
9      C9     -5.4925    0.9794   -1.3737 C.3      1 ZINC000003785268   -0.0400
10     N10    -6.5410    2.0083   -1.3873 N.4      1 ZINC000003785268   -0.5100
11     H11    -7.2809    1.7429   -0.7546 H        1 ZINC000003785268    0.4300
12     H12    -6.1495    2.8913   -1.0954 H        1 ZINC000003785268    0.4300
13     C13    -7.0822    2.1380   -2.7468 C.3      1 ZINC000003785268   -0.0100
14     C14    -8.1742    3.2096   -2.7609 C.3      1 ZINC000003785268   -0.1500
15     C15    -8.7378    3.3447   -4.1768 C.3      1 ZINC000003785268   -0.1200
16     C16    -9.8298    4.4163   -4.1909 C.3      1 ZINC000003785268   -0.1200
17     C17   -10.3935    4.5515   -5.6069 C.3      1 ZINC000003785268   -0.1200
18     C18   -11.4854    5.6230   -5.6210 C.3      1 ZINC000003785268    0.0600
19     O19   -12.0119    5.7493   -6.9435 O.3      1 ZINC000003785268   -0.3900
20     C20   -13.0442    6.7296   -7.0670 C.3      1 ZINC000003785268    0.0600
21     C21   -13.5304    6.7784   -8.5169 C.3      1 ZINC000003785268   -0.1200
22     C22   -14.6357    7.8280   -8.6491 C.3      1 ZINC000003785268   -0.1100
23     C23   -15.1219    7.8767  -10.0990 C.3      1 ZINC000003785268   -0.0800
24     C24   -16.2106    8.9106  -10.2293 C.ar     1 ZINC000003785268   -0.0900
25     C25   -17.5314    8.5516  -10.0359 C.ar     1 ZINC000003785268   -0.1200
26     C26   -18.5300    9.4999  -10.1553 C.ar     1 ZINC000003785268   -0.1200
27     C27   -18.2078   10.8074  -10.4678 C.ar     1 ZINC000003785268   -0.1200
28     C28   -16.8869   11.1666  -10.6603 C.ar     1 ZINC000003785268   -0.1200
29     C29   -15.8879   10.2192  -10.5366 C.ar     1 ZINC000003785268   -0.1200
30     C30    -4.0091   -1.4829    0.0329 C.ar     1 ZINC000003785268   -0.0900
31     C31    -2.9499   -2.3700    0.0233 C.ar     1 ZINC000003785268   -0.1400
32     C32    -1.6474   -1.8930    0.0076 C.ar     1 ZINC000003785268    0.1300
33     O33    -0.6038   -2.7635   -0.0019 O.3      1 ZINC000003785268   -0.4900
34     H34     0.8606    1.8301    0.0037 H        1 ZINC000003785268    0.3900
35     H35     0.5123   -0.3556   -0.8948 H        1 ZINC000003785268    0.0600
36     H36     0.5293   -0.3651    0.8851 H        1 ZINC000003785268    0.0700
37     H37    -2.2912    1.4214    0.0214 H        1 ZINC000003785268    0.1400
38     H38    -6.3008   -0.5086    0.6656 H        1 ZINC000003785268    0.3900
39     H39    -4.6933    1.2661   -2.0571 H        1 ZINC000003785268    0.1400
40     H40    -5.9154    0.0256   -1.6890 H        1 ZINC000003785268    0.1400
41     H41    -6.2829    2.4248   -3.4302 H        1 ZINC000003785268    0.1300
42     H42    -7.5051    1.1842   -3.0621 H        1 ZINC000003785268    0.1300
43     H43    -8.9734    2.9229   -2.0775 H        1 ZINC000003785268    0.0900
44     H44    -7.7513    4.1635   -2.4456 H        1 ZINC000003785268    0.0900
45     H45    -7.9385    3.6315   -4.8602 H        1 ZINC000003785268    0.0800
46     H46    -9.1607    2.3909   -4.4921 H        1 ZINC000003785268    0.0800
47     H47   -10.6291    4.1296   -3.5075 H        1 ZINC000003785268    0.0700
48     H48    -9.4069    5.3702   -3.8756 H        1 ZINC000003785268    0.0700
49     H49    -9.5942    4.8382   -6.2903 H        1 ZINC000003785268    0.0700
50     H50   -10.8164    3.5976   -5.9222 H        1 ZINC000003785268    0.0700
51     H51   -12.2847    5.3363   -4.9376 H        1 ZINC000003785268    0.0500
52     H52   -11.0626    6.5769   -5.3057 H        1 ZINC000003785268    0.0500
53     H53   -13.8759    6.4658   -6.4136 H        1 ZINC000003785268    0.0500
54     H54   -12.6537    7.7064   -6.7817 H        1 ZINC000003785268    0.0500
55     H55   -12.6988    7.0421   -9.1703 H        1 ZINC000003785268    0.0700
56     H56   -13.9210    5.8015   -8.8022 H        1 ZINC000003785268    0.0700
57     H57   -15.4673    7.5642   -7.9957 H        1 ZINC000003785268    0.0700
58     H58   -14.2452    8.8048   -8.3638 H        1 ZINC000003785268    0.0700
59     H59   -14.2903    8.1405  -10.7524 H        1 ZINC000003785268    0.0700
60     H60   -15.5125    6.8999  -10.3843 H        1 ZINC000003785268    0.0700
61     H61   -17.7832    7.5301   -9.7918 H        1 ZINC000003785268    0.1200
62     H62   -19.5620    9.2193  -10.0049 H        1 ZINC000003785268    0.1200
63     H63   -18.9881   11.5481  -10.5618 H        1 ZINC000003785268    0.1200
64     H64   -16.6352   12.1880  -10.9047 H        1 ZINC000003785268    0.1200
65     H65   -14.8559   10.4998  -10.6870 H        1 ZINC000003785268    0.1200
66     H66    -5.0234   -1.8538    0.0414 H        1 ZINC000003785268    0.1300
67     H67    -3.1358   -3.4339    0.0242 H        1 ZINC000003785268    0.1400
68     H68    -0.3117   -3.0177   -0.8879 H        1 ZINC000003785268    0.4000
@<TRIPOS>BOND
1     1     2     1
2     1     34    1
3     2     3     1
4     2     35    1
5     2     36    1
6     3     32    ar
7     3     4     ar
8     4     5     ar
9     4     37    1
10    5     6     1
11    5     30    ar
12    6     7     1
13    6     8     1
14    6     9     1
15    8     38    1
16    9     10    1
17    9     39    1
18    9     40    1
19    10    11    1
20    10    12    1
21    10    13    1
22    13    14    1
23    13    41    1
24    13    42    1
25    14    15    1
26    14    43    1
27    14    44    1
28    15    16    1
29    15    45    1
30    15    46    1
31    16    17    1
32    16    47    1
33    16    48    1
34    17    18    1
35    17    49    1
36    17    50    1
37    18    19    1
38    18    51    1
39    18    52    1
40    19    20    1
41    20    21    1
42    20    53    1
43    20    54    1
44    21    22    1
45    21    55    1
46    21    56    1
47    22    23    1
48    22    57    1
49    22    58    1
50    23    24    1
51    23    59    1
52    23    60    1
53    24    29    ar
54    24    25    ar
55    25    26    ar
56    25    61    1
57    26    27    ar
58    26    62    1
59    27    28    ar
60    27    63    1
61    28    29    ar
62    28    64    1
63    29    65    1
64    30    31    ar
65    30    66    1
66    31    32    ar
67    31    67    1
68    32    33    1
69    33    68    1
@<TRIPOS>SUBSTRUCTURE
1   ZINC000003785268 1     RESIDUE    1   A     ZIN   1
