@<TRIPOS>MOLECULE
ZINC000000012346
26    27    1     0     0
SMALL
USER_CHARGES
@<TRIPOS>ATOM
1      N1     -0.0166    1.3714    0.0096 N.pl3    1 ZINC000000012346   -0.8100
2      C2      0.0021   -0.0041    0.0020 C.2      1 ZINC000000012346    0.5100
3      N3     -1.1354   -0.6867    0.0037 N.2      1 ZINC000000012346   -0.6100
4      C4     -1.1293   -2.0185   -0.0041 C.2      1 ZINC000000012346    0.6600
5      O5     -2.1886   -2.6233   -0.0028 O.2      1 ZINC000000012346   -0.5400
6      N6      0.0264   -2.7078   -0.0137 N.am     1 ZINC000000012346   -0.5300
7      C7      0.0011   -4.1726   -0.0226 C.3      1 ZINC000000012346    0.3000
8      H8     -0.5112   -4.5280   -0.9166 H        1 ZINC000000012346    0.1100
9      C9     -0.7297   -4.6954    1.2475 C.3      1 ZINC000000012346   -0.0900
10     S10    -0.0951   -6.4213    1.2992 S.3      1 ZINC000000012346   -0.2700
11     C11     1.3808   -6.1007    0.2580 C.3      1 ZINC000000012346    0.1400
12     H12     1.3140   -6.6548   -0.6783 H        1 ZINC000000012346    0.1200
13     C13     2.6583   -6.4776    1.0108 C.3      1 ZINC000000012346    0.0900
14     O14     2.7373   -5.7238    2.2223 O.3      1 ZINC000000012346   -0.5600
15     O15     1.3412   -4.6824    0.0052 O.3      1 ZINC000000012346   -0.3700
16     C16     1.2200   -2.0505   -0.0158 C.2      1 ZINC000000012346    0.2100
17     C17     1.2303   -0.6965   -0.0134 C.2      1 ZINC000000012346   -0.3100
18     H18     0.8168    1.8678    0.0043 H        1 ZINC000000012346    0.4200
19     H19    -0.8631    1.8449    0.0162 H        1 ZINC000000012346    0.4100
20     H20    -0.4299   -4.1371    2.1343 H        1 ZINC000000012346    0.1100
21     H21    -1.8118   -4.6757    1.1175 H        1 ZINC000000012346    0.1400
22     H22     2.6410   -7.5419    1.2456 H        1 ZINC000000012346    0.0700
23     H23     3.5254   -6.2569    0.3884 H        1 ZINC000000012346    0.0700
24     H24     3.5241   -5.9120    2.7520 H        1 ZINC000000012346    0.3800
25     H25     2.1477   -2.6035   -0.0235 H        1 ZINC000000012346    0.1800
26     H26     2.1649   -0.1552   -0.0154 H        1 ZINC000000012346    0.1600
@<TRIPOS>BOND
1     1     2     1
2     1     18    1
3     1     19    1
4     2     17    1
5     2     3     2
6     3     4     1
7     4     5     2
8     4     6     am
9     6     7     1
10    6     16    1
11    7     8     1
12    7     15    1
13    7     9     1
14    9     10    1
15    9     20    1
16    9     21    1
17    10    11    1
18    11    12    1
19    11    13    1
20    11    15    1
21    13    14    1
22    13    22    1
23    13    23    1
24    14    24    1
25    16    17    2
26    16    25    1
27    17    26    1
@<TRIPOS>SUBSTRUCTURE
1   ZINC000000012346 1     RESIDUE    1   A     ZIN   1
