@<TRIPOS>MOLECULE
ZINC000001532526
20   19    0    0    0
SMALL
USER_CHARGES
NO_NAME
@<TRIPOS>ATOM
1 N1       -0.0162     1.3436     0.0094 N.am   1 <0>      -0.8600
2 C2        0.0021    -0.0041     0.0020 C.2    1 <0>       0.5100
3 O3        1.0605    -0.5961    -0.0113 O.2    1 <0>      -0.5300
4 C4       -1.2926    -0.7753     0.0102 C.3    1 <0>      -0.1600
5 C5       -0.9927    -2.2755    -0.0007 C.3    1 <0>      -0.1100
6 C6       -2.3072    -3.0585     0.0077 C.3    1 <0>      -0.0500
7 H7       -2.9289    -2.7335    -0.8265 H      1 <0>       0.1300
8 N8       -3.0153    -2.8129     1.2710 N.4    1 <0>      -0.6200
9 H9       -3.8822    -3.3293     1.2765 H      1 <0>       0.4300
10 H10      -2.4398    -3.1138     2.0432 H      1 <0>       0.4300
11 H11      -3.2105    -1.8271     1.3611 H      1 <0>       0.4100
12 C12      -2.0157    -4.5309    -0.1269 C.2    1 <0>       0.4900
13 O13      -1.8406    -5.2112     0.8696 O.co2  1 <0>      -0.6700
14 O14      -1.9549    -5.0418    -1.2322 O.co2  1 <0>      -0.6400
15 H15       0.8172     1.8399     0.0041 H      1 <0>       0.4100
16 H16      -0.8627     1.8171     0.0160 H      1 <0>       0.4000
17 H17      -1.8592    -0.5245     0.9070 H      1 <0>       0.0900
18 H18      -1.8762    -0.5150    -0.8728 H      1 <0>       0.1100
19 H19      -0.4261    -2.5263    -0.8975 H      1 <0>       0.1100
20 H20      -0.4091    -2.5358     0.8824 H      1 <0>       0.0900
@<TRIPOS>BOND
1    1    2 am
2    1   15 1
3    1   16 1
4    2    3 2
5    2    4 1
6    4    5 1
7    4   17 1
8    4   18 1
9    5    6 1
10    5   19 1
11    5   20 1
12    6    7 1
13    6    8 1
14    6   12 1
15    8    9 1
16    8   10 1
17    8   11 1
18   12   13 ar
19   12   14 ar
