@<TRIPOS>MOLECULE
ZINC000001530613
57    58    1     0     0
SMALL
USER_CHARGES
@<TRIPOS>ATOM
1      C1     -1.6534    1.5217    0.7795 C.3      1 ZINC000001530613   -0.1500
2      C2     -1.5373    0.0681    1.2425 C.3      1 ZINC000001530613    0.0500
3      N3     -1.1933   -0.7847    0.0969 N.3      1 ZINC000001530613   -0.5300
4      C4      0.1497   -0.4707   -0.4087 C.3      1 ZINC000001530613    0.0500
5      C5      0.3194   -1.0643   -1.8086 C.3      1 ZINC000001530613   -0.1500
6      C6     -1.3047   -2.2070    0.4471 C.3      1 ZINC000001530613    0.0500
7      C7     -2.7807   -2.6079    0.4888 C.3      1 ZINC000001530613    0.0600
8      O8     -3.3563   -2.4737   -0.8375 O.3      1 ZINC000001530613   -0.3200
9      C9     -4.6750   -2.6952   -0.9547 C.2      1 ZINC000001530613    0.4700
10     O10    -5.3429   -2.9014    0.0308 O.2      1 ZINC000001530613   -0.5000
11     C11    -5.3224   -2.6866   -2.3156 C.3      1 ZINC000001530613   -0.0400
12     C12    -6.8146   -2.9927   -2.1723 C.3      1 ZINC000001530613   -0.0600
13     C13    -6.9933   -4.3704   -1.5312 C.3      1 ZINC000001530613   -0.1300
14     C14    -8.4855   -4.6765   -1.3880 C.3      1 ZINC000001530613   -0.1200
15     C15    -9.1417   -3.6138   -0.5043 C.3      1 ZINC000001530613   -0.1200
16     C16    -8.9630   -2.2361   -1.1455 C.3      1 ZINC000001530613   -0.1200
17     C17    -7.4708   -1.9300   -1.2887 C.3      1 ZINC000001530613   -0.1300
18     C18    -5.1437   -1.3089   -2.9567 C.3      1 ZINC000001530613   -0.1100
19     C19    -3.6515   -1.0028   -3.0999 C.3      1 ZINC000001530613   -0.1300
20     C20    -2.9953   -2.0656   -3.9836 C.3      1 ZINC000001530613   -0.1100
21     C21    -3.1741   -3.4432   -3.3424 C.3      1 ZINC000001530613   -0.1300
22     C22    -4.6663   -3.7494   -3.1992 C.3      1 ZINC000001530613   -0.1100
23     H23    -1.9086    2.1545    1.6295 H        1 ZINC000001530613    0.0600
24     H24    -0.7018    1.8459    0.3580 H        1 ZINC000001530613    0.0600
25     H25    -2.4323    1.6004    0.0211 H        1 ZINC000001530613    0.0600
26     H26    -0.7584   -0.0106    2.0009 H        1 ZINC000001530613    0.0300
27     H27    -2.4888   -0.2561    1.6640 H        1 ZINC000001530613    0.0700
28     H28     0.2769    0.6109   -0.4548 H        1 ZINC000001530613    0.0800
29     H29     0.8982   -0.8963    0.2597 H        1 ZINC000001530613    0.0300
30     H30     0.1676   -2.1429   -1.7667 H        1 ZINC000001530613    0.0500
31     H31    -0.4130   -0.6203   -2.4828 H        1 ZINC000001530613    0.0700
32     H32     1.3244   -0.8528   -2.1736 H        1 ZINC000001530613    0.0600
33     H33    -0.7862   -2.8070   -0.3007 H        1 ZINC000001530613    0.0900
34     H34    -0.8544   -2.3767    1.4251 H        1 ZINC000001530613    0.0600
35     H35    -2.8669   -3.6430    0.8192 H        1 ZINC000001530613    0.0700
36     H36    -3.3139   -1.9591    1.1836 H        1 ZINC000001530613    0.0700
37     H37    -7.2829   -2.9865   -3.1566 H        1 ZINC000001530613    0.0800
38     H38    -6.5259   -5.1275   -2.1608 H        1 ZINC000001530613    0.0600
39     H39    -6.5251   -4.3766   -0.5470 H        1 ZINC000001530613    0.0900
40     H40    -8.9538   -4.6703   -2.3723 H        1 ZINC000001530613    0.0600
41     H41    -8.6129   -5.6580   -0.9313 H        1 ZINC000001530613    0.0600
42     H42   -10.2048   -3.8319   -0.4023 H        1 ZINC000001530613    0.0600
43     H43    -8.6734   -3.6200    0.4799 H        1 ZINC000001530613    0.0600
44     H44    -9.4312   -2.2299   -2.1297 H        1 ZINC000001530613    0.0600
45     H45    -9.4304   -1.4790   -0.5159 H        1 ZINC000001530613    0.0600
46     H46    -7.0025   -1.9362   -0.3044 H        1 ZINC000001530613    0.0900
47     H47    -7.3434   -0.9485   -1.7454 H        1 ZINC000001530613    0.0600
48     H48    -5.6119   -1.3027   -3.9410 H        1 ZINC000001530613    0.0700
49     H49    -5.6111   -0.5518   -2.3271 H        1 ZINC000001530613    0.0700
50     H50    -3.5241   -0.0213   -3.5567 H        1 ZINC000001530613    0.0600
51     H51    -3.1832   -1.0090   -2.1156 H        1 ZINC000001530613    0.1000
52     H52    -3.4636   -2.0593   -4.9678 H        1 ZINC000001530613    0.0500
53     H53    -1.9322   -1.8475   -4.0856 H        1 ZINC000001530613    0.0600
54     H54    -2.7066   -4.2003   -3.9720 H        1 ZINC000001530613    0.0600
55     H55    -2.7058   -3.4494   -2.3582 H        1 ZINC000001530613    0.0900
56     H56    -4.7936   -4.7308   -2.7425 H        1 ZINC000001530613    0.0700
57     H57    -5.1345   -3.7431   -4.1835 H        1 ZINC000001530613    0.0800
@<TRIPOS>BOND
1     1     2     1
2     1     23    1
3     1     24    1
4     1     25    1
5     2     3     1
6     2     26    1
7     2     27    1
8     3     4     1
9     3     6     1
10    4     5     1
11    4     28    1
12    4     29    1
13    5     30    1
14    5     31    1
15    5     32    1
16    6     7     1
17    6     33    1
18    6     34    1
19    7     8     1
20    7     35    1
21    7     36    1
22    8     9     1
23    9     10    2
24    9     11    1
25    11    22    1
26    11    12    1
27    11    18    1
28    12    17    1
29    12    13    1
30    12    37    1
31    13    14    1
32    13    38    1
33    13    39    1
34    14    15    1
35    14    40    1
36    14    41    1
37    15    16    1
38    15    42    1
39    15    43    1
40    16    17    1
41    16    44    1
42    16    45    1
43    17    46    1
44    17    47    1
45    18    19    1
46    18    48    1
47    18    49    1
48    19    20    1
49    19    50    1
50    19    51    1
51    20    21    1
52    20    52    1
53    20    53    1
54    21    22    1
55    21    54    1
56    21    55    1
57    22    56    1
58    22    57    1
@<TRIPOS>SUBSTRUCTURE
1   ZINC000001530613 1     RESIDUE    1   A     ZIN   1
