@<TRIPOS>MOLECULE
ZINC000000896634
34    36    1     0     0
SMALL
USER_CHARGES
@<TRIPOS>ATOM
1      C1      0.5627    1.4223    0.1923 C.3      1 ZINC000000896634    0.0600
2      N2      0.3224   -0.0202    0.1046 N.am     1 ZINC000000896634   -0.5500
3      C3     -0.9936   -0.4535    0.1624 C.ar     1 ZINC000000896634    0.1800
4      C4     -1.9467    0.2978   -0.5276 C.ar     1 ZINC000000896634   -0.1300
5      C5     -3.2746   -0.0691   -0.5152 C.ar     1 ZINC000000896634   -0.0600
6      C6     -3.6782   -1.1940    0.1864 C.ar     1 ZINC000000896634   -0.0500
7      Cl7    -5.3521   -1.6537    0.2004 Cl       1 ZINC000000896634   -0.0500
8      C8     -2.7517   -1.9472    0.8720 C.ar     1 ZINC000000896634   -0.0500
9      C9     -1.3961   -1.5855    0.8686 C.ar     1 ZINC000000896634   -0.1300
10     C10    -0.4608   -2.4383    1.6187 C.2      1 ZINC000000896634    0.2900
11     C11    -0.9077   -2.9542    2.9336 C.ar     1 ZINC000000896634   -0.0700
12     C12    -0.3320   -4.1078    3.4655 C.ar     1 ZINC000000896634   -0.0700
13     C13    -0.7521   -4.5831    4.6909 C.ar     1 ZINC000000896634   -0.1300
14     C14    -1.7426   -3.9180    5.3913 C.ar     1 ZINC000000896634   -0.1000
15     C15    -2.3178   -2.7735    4.8687 C.ar     1 ZINC000000896634   -0.1200
16     C16    -1.9018   -2.2850    3.6471 C.ar     1 ZINC000000896634   -0.0900
17     N17     0.7155   -2.7691    1.2186 N.2      1 ZINC000000896634   -0.5200
18     C18     1.2543   -2.3076   -0.0602 C.3      1 ZINC000000896634    0.2500
19     H19     0.5789   -2.5951   -0.8660 H        1 ZINC000000896634    0.0900
20     O20     2.5381   -2.8959   -0.2789 O.3      1 ZINC000000896634   -0.5200
21     C21     1.3839   -0.8120   -0.0298 C.2      1 ZINC000000896634    0.5200
22     O22     2.4853   -0.3125   -0.1217 O.2      1 ZINC000000896634   -0.4800
23     H23     1.6334    1.6167    0.1291 H        1 ZINC000000896634    0.1000
24     H24     0.0529    1.9262   -0.6288 H        1 ZINC000000896634    0.0800
25     H25     0.1808    1.7972    1.1418 H        1 ZINC000000896634    0.0800
26     H26    -1.6400    1.1759   -1.0765 H        1 ZINC000000896634    0.1500
27     H27    -4.0020    0.5205   -1.0534 H        1 ZINC000000896634    0.1500
28     H28    -3.0711   -2.8231    1.4172 H        1 ZINC000000896634    0.1500
29     H29     0.4408   -4.6282    2.9193 H        1 ZINC000000896634    0.1300
30     H30    -0.3070   -5.4763    5.1038 H        1 ZINC000000896634    0.1300
31     H31    -2.0683   -4.2941    6.3499 H        1 ZINC000000896634    0.1300
32     H32    -3.0909   -2.2589    5.4200 H        1 ZINC000000896634    0.1300
33     H33    -2.3515   -1.3914    3.2401 H        1 ZINC000000896634    0.1300
34     H34     2.5283   -3.8625   -0.3066 H        1 ZINC000000896634    0.3900
@<TRIPOS>BOND
1     1     2     1
2     1     23    1
3     1     24    1
4     1     25    1
5     2     21    am
6     2     3     1
7     3     9     ar
8     3     4     ar
9     4     5     ar
10    4     26    1
11    5     6     ar
12    5     27    1
13    6     7     1
14    6     8     ar
15    8     9     ar
16    8     28    1
17    9     10    1
18    10    11    1
19    10    17    2
20    11    16    ar
21    11    12    ar
22    12    13    ar
23    12    29    1
24    13    14    ar
25    13    30    1
26    14    15    ar
27    14    31    1
28    15    16    ar
29    15    32    1
30    16    33    1
31    17    18    1
32    18    19    1
33    18    20    1
34    18    21    1
35    20    34    1
36    21    22    2
@<TRIPOS>SUBSTRUCTURE
1   ZINC000000896634 1     RESIDUE    1   A     ZIN   1
