@<TRIPOS>MOLECULE
ZINC000053683151
84    90    1     0     0
SMALL
USER_CHARGES
@<TRIPOS>ATOM
1      C1     -0.1092   -2.5068    2.2793 C.3      1 ZINC000053683151   -0.1500
2      C2      1.2860   -1.8844    2.3627 C.3      1 ZINC000053683151   -0.1100
3      C3      2.1951   -2.5283    1.3140 C.3      1 ZINC000053683151   -0.1400
4      C4      1.1899   -0.3802    2.0999 C.3      1 ZINC000053683151   -0.1100
5      C5      0.3639    0.2791    3.2062 C.3      1 ZINC000053683151    0.1600
6      H6     -0.5997   -0.2235    3.2894 H        1 ZINC000053683151    0.1300
7      C7      1.1007    0.1725    4.5146 C.2      1 ZINC000053683151    0.5300
8      O8      1.2034   -0.9087    5.0544 O.2      1 ZINC000053683151   -0.5000
9      N9      1.6446    1.2517    5.0933 N.am     1 ZINC000053683151   -0.6100
10     C10     2.5713    1.2412    6.2408 C.3      1 ZINC000053683151    0.1000
11     C11     3.4296    2.5170    6.1370 C.3      1 ZINC000053683151   -0.1400
12     C12     2.9034    3.2537    4.8819 C.3      1 ZINC000053683151   -0.1200
13     C13     1.4868    2.6606    4.7087 C.3      1 ZINC000053683151    0.1600
14     H14     0.7911    3.1554    5.3865 H        1 ZINC000053683151    0.1100
15     C15     1.0136    2.8184    3.2774 C.3      1 ZINC000053683151    0.4600
16     O16     2.1439    2.8778    2.4051 O.3      1 ZINC000053683151   -0.5400
17     O17     0.2512    4.0258    3.1251 O.3      1 ZINC000053683151   -0.3100
18     C18    -0.7105    3.7097    2.0997 C.3      1 ZINC000053683151    0.3000
19     N19    -0.1883    4.0780    0.7814 N.am     1 ZINC000053683151   -0.7100
20     C20     0.3957    5.2789    0.5994 C.2      1 ZINC000053683151    0.5300
21     O21     0.5853    6.0109    1.5476 O.2      1 ZINC000053683151   -0.5100
22     C22     0.8130    5.7122   -0.7823 C.3      1 ZINC000053683151   -0.1000
23     H23    -0.0579    5.7448   -1.4370 H        1 ZINC000053683151    0.1600
24     C24     1.8297    4.7461   -1.3341 C.2      1 ZINC000053683151   -0.1500
25     C25     3.1236    4.9619   -1.1767 C.2      1 ZINC000053683151   -0.0400
26     C26     4.0975    4.0246   -1.7690 C.ar     1 ZINC000053683151   -0.0300
27     C27     5.3471    4.6121   -2.0629 C.ar     1 ZINC000053683151   -0.1200
28     C28     6.4441    3.9486   -2.6199 C.ar     1 ZINC000053683151    0.1300
29     C29     6.2911    2.5949   -2.9155 C.ar     1 ZINC000053683151   -0.0900
30     C30     5.0619    2.0102   -2.6322 C.ar     1 ZINC000053683151   -0.0900
31     C31     3.9806    2.6886   -2.0735 C.ar     1 ZINC000053683151   -0.0900
32     N32     7.4224    4.8923   -2.7190 N.pl3    1 ZINC000053683151   -0.5700
33     C33     6.9665    6.1132   -2.2460 C.2      1 ZINC000053683151    0.1000
34     Br34    7.9896    7.7028   -2.1952 Br       1 ZINC000053683151    0.0300
35     C35     5.7069    6.0067   -1.8337 C.2      1 ZINC000053683151   -0.1500
36     C36     4.6923    6.9556   -1.2465 C.3      1 ZINC000053683151   -0.0500
37     C37     3.6736    6.1485   -0.4327 C.3      1 ZINC000053683151    0.0600
38     H38     4.2228    5.7346    0.4129 H        1 ZINC000053683151    0.1400
39     N39     2.6561    7.0143    0.1332 N.4      1 ZINC000053683151   -0.3800
40     H40     2.3882    6.6568    1.0379 H        1 ZINC000053683151    0.4400
41     C41     3.2164    8.3619    0.3006 C.3      1 ZINC000053683151   -0.0600
42     C42     1.4644    7.0992   -0.7163 C.3      1 ZINC000053683151    0.0100
43     C43    -2.0312    4.4339    2.3684 C.3      1 ZINC000053683151   -0.0800
44     C44    -1.7687    5.9336    2.5202 C.3      1 ZINC000053683151   -0.1400
45     C45    -2.9886    4.1996    1.1982 C.3      1 ZINC000053683151   -0.1600
46     C46    -0.9028    2.2108    2.1890 C.2      1 ZINC000053683151    0.5000
47     O47    -1.8279    1.5768    1.7272 O.2      1 ZINC000053683151   -0.4500
48     N48     0.1522    1.6920    2.8824 N.am     1 ZINC000053683151   -0.6400
49     H49    -0.5631   -2.2541    1.3211 H        1 ZINC000053683151    0.0500
50     H50    -0.0297   -3.5902    2.3693 H        1 ZINC000053683151    0.0600
51     H51    -0.7287   -2.1196    3.0883 H        1 ZINC000053683151    0.0500
52     H52     1.7007   -2.0539    3.3563 H        1 ZINC000053683151    0.0900
53     H53     1.7804   -2.3588    0.3203 H        1 ZINC000053683151    0.0500
54     H54     3.1891   -2.0849    1.3733 H        1 ZINC000053683151    0.0500
55     H55     2.2636   -3.5999    1.5012 H        1 ZINC000053683151    0.0600
56     H56     2.1908    0.0512    2.0876 H        1 ZINC000053683151    0.0700
57     H57     0.7090   -0.2096    1.1367 H        1 ZINC000053683151    0.0800
58     H58     2.0081    1.2465    7.1741 H        1 ZINC000053683151    0.0800
59     H59     3.2093    0.3587    6.1959 H        1 ZINC000053683151    0.0900
60     H60     3.2958    3.1366    7.0237 H        1 ZINC000053683151    0.0900
61     H61     4.4806    2.2570    6.0107 H        1 ZINC000053683151    0.0900
62     H62     2.8537    4.3284    5.0571 H        1 ZINC000053683151    0.0900
63     H63     3.5244    3.0308    4.0143 H        1 ZINC000053683151    0.1000
64     H64     1.9151    2.9787    1.4710 H        1 ZINC000053683151    0.3700
65     H65    -0.2628    3.4575    0.0396 H        1 ZINC000053683151    0.4200
66     H66     1.4965    3.8663   -1.8645 H        1 ZINC000053683151    0.1500
67     H67     7.0976    2.0215   -3.3482 H        1 ZINC000053683151    0.1400
68     H68     4.9370    0.9619   -2.8599 H        1 ZINC000053683151    0.1400
69     H69     3.0549    2.1673   -1.8798 H        1 ZINC000053683151    0.1300
70     H70     8.3122    4.7323   -3.0705 H        1 ZINC000053683151    0.4300
71     H71     5.1950    7.6711   -0.5959 H        1 ZINC000053683151    0.1100
72     H72     4.1805    7.4859   -2.0496 H        1 ZINC000053683151    0.1000
73     H73     3.5305    8.7479   -0.6692 H        1 ZINC000053683151    0.1300
74     H74     2.4587    9.0202    0.7255 H        1 ZINC000053683151    0.1300
75     H75     4.0758    8.3176    0.9696 H        1 ZINC000053683151    0.1300
76     H76     1.7514    7.4168   -1.7188 H        1 ZINC000053683151    0.1400
77     H77     0.7614    7.8149   -0.2901 H        1 ZINC000053683151    0.1500
78     H78    -2.4770    4.0484    3.2853 H        1 ZINC000053683151    0.0900
79     H79    -1.4629    6.3480    1.5596 H        1 ZINC000053683151    0.0500
80     H80    -2.6792    6.4296    2.8565 H        1 ZINC000053683151    0.0600
81     H81    -0.9771    6.0916    3.2527 H        1 ZINC000053683151    0.0800
82     H82    -3.2591    3.1446    1.1557 H        1 ZINC000053683151    0.0800
83     H83    -3.8876    4.7999    1.3384 H        1 ZINC000053683151    0.0700
84     H84    -2.5012    4.4875    0.2667 H        1 ZINC000053683151    0.0600
@<TRIPOS>BOND
1     1     2     1
2     1     49    1
3     1     50    1
4     1     51    1
5     2     3     1
6     2     4     1
7     2     52    1
8     3     53    1
9     3     54    1
10    3     55    1
11    4     5     1
12    4     56    1
13    4     57    1
14    5     6     1
15    5     48    1
16    5     7     1
17    7     8     2
18    7     9     am
19    9     13    1
20    9     10    1
21    10    11    1
22    10    58    1
23    10    59    1
24    11    12    1
25    11    60    1
26    11    61    1
27    12    13    1
28    12    62    1
29    12    63    1
30    13    14    1
31    13    15    1
32    15    48    1
33    15    16    1
34    15    17    1
35    16    64    1
36    17    18    1
37    18    19    1
38    18    43    1
39    18    46    1
40    19    20    am
41    19    65    1
42    20    21    2
43    20    22    1
44    22    23    1
45    22    42    1
46    22    24    1
47    24    25    2
48    24    66    1
49    25    37    1
50    25    26    1
51    26    31    ar
52    26    27    ar
53    27    35    1
54    27    28    ar
55    28    29    ar
56    28    32    1
57    29    30    ar
58    29    67    1
59    30    31    ar
60    30    68    1
61    31    69    1
62    32    33    1
63    32    70    1
64    33    34    1
65    33    35    2
66    35    36    1
67    36    37    1
68    36    71    1
69    36    72    1
70    37    38    1
71    37    39    1
72    39    40    1
73    39    41    1
74    39    42    1
75    41    73    1
76    41    74    1
77    41    75    1
78    42    76    1
79    42    77    1
80    43    44    1
81    43    45    1
82    43    78    1
83    44    79    1
84    44    80    1
85    44    81    1
86    45    82    1
87    45    83    1
88    45    84    1
89    46    47    2
90    46    48    am
@<TRIPOS>SUBSTRUCTURE
1   ZINC000053683151 1     RESIDUE    1   A     ZIN   1
