@<TRIPOS>MOLECULE
ZINC000001482113
18    17    1     0     0
SMALL
USER_CHARGES
@<TRIPOS>ATOM
1      N1     -0.0116    1.0048    0.0076 N.4      1 ZINC000001482113   -0.6100
2      H2      0.0021   -0.0041    0.0020 H        1 ZINC000001482113    0.4100
3      H3      0.9350    1.3541    0.0004 H        1 ZINC000001482113    0.4300
4      H4     -0.4996    1.3391   -0.8099 H        1 ZINC000001482113    0.4200
5      C5     -0.6992    1.4786    1.2162 C.3      1 ZINC000001482113   -0.0500
6      H6     -1.7218    1.1013    1.2239 H        1 ZINC000001482113    0.1300
7      C7      0.0408    0.9717    2.4557 C.3      1 ZINC000001482113   -0.1000
8      C8     -0.0459   -0.5547    2.5128 C.3      1 ZINC000001482113   -0.2000
9      C9      0.6830   -1.0540    3.7337 C.2      1 ZINC000001482113    0.4900
10     O10     1.2218   -0.2622    4.4882 O.co2    1 ZINC000001482113   -0.6900
11     O11     0.7339   -2.2496    3.9669 O.co2    1 ZINC000001482113   -0.7000
12     C12    -0.7196    2.9854    1.2245 C.2      1 ZINC000001482113    0.4900
13     O13    -1.3988    3.5814    2.0431 O.co2    1 ZINC000001482113   -0.6400
14     O14    -0.0570    3.6085    0.4126 O.co2    1 ZINC000001482113   -0.6900
15     H15     1.0866    1.2746    2.4037 H        1 ZINC000001482113    0.0800
16     H16    -0.4161    1.3953    3.3501 H        1 ZINC000001482113    0.1100
17     H17    -1.0916   -0.8576    2.5648 H        1 ZINC000001482113    0.0700
18     H18     0.4110   -0.9783    1.6184 H        1 ZINC000001482113    0.0500
@<TRIPOS>BOND
1     1     2     1
2     1     3     1
3     1     4     1
4     1     5     1
5     5     6     1
6     5     7     1
7     5     12    1
8     7     8     1
9     7     15    1
10    7     16    1
11    8     9     1
12    8     17    1
13    8     18    1
14    9     10    ar
15    9     11    ar
16    12    13    ar
17    12    14    ar
@<TRIPOS>SUBSTRUCTURE
1   ZINC000001482113 1     RESIDUE    1   A     ZIN   1
