@<TRIPOS>MOLECULE
ZINC000003830449
44    46    1     0     0
SMALL
USER_CHARGES
@<TRIPOS>ATOM
1      C1      0.0255    1.4307   -0.1592 C.3      1 ZINC000003830449    0.0200
2      O2      0.0350    0.0022   -0.1242 O.3      1 ZINC000003830449   -0.3500
3      C3     -1.2663   -0.5868   -0.0822 C.3      1 ZINC000003830449    0.3200
4      N4     -2.1683    0.0905    0.8526 N.am     1 ZINC000003830449   -0.7300
5      C5     -3.4803   -0.2174    0.8659 C.2      1 ZINC000003830449    0.5100
6      O6     -3.9143   -1.0553    0.1040 O.2      1 ZINC000003830449   -0.4500
7      C7     -4.4082    0.4794    1.8275 C.3      1 ZINC000003830449   -0.0600
8      C8     -5.8095   -0.0425    1.6408 C.2      1 ZINC000003830449   -0.1600
9      C9     -6.3371   -1.0796    2.2929 C.2      1 ZINC000003830449   -0.1200
10     C10    -7.6463   -1.3763    1.9551 C.2      1 ZINC000003830449   -0.1300
11     C11    -8.1819   -0.5800    1.0286 C.2      1 ZINC000003830449   -0.2100
12     S12    -7.0021    0.6275    0.5352 S.3      1 ZINC000003830449    0.1100
13     C13    -1.8731   -0.8234   -1.4548 C.2      1 ZINC000003830449    0.5400
14     O14    -2.1058   -0.1156   -2.4119 O.2      1 ZINC000003830449   -0.4400
15     N15    -2.0491   -2.1289   -1.1873 N.am     1 ZINC000003830449   -0.5300
16     C16    -2.8084   -3.2078   -1.6720 C.2      1 ZINC000003830449    0.1200
17     C17    -3.1886   -3.2616   -3.0929 C.2      1 ZINC000003830449    0.5200
18     O18    -3.7574   -4.2496   -3.5370 O.co2    1 ZINC000003830449   -0.6600
19     O19    -2.9358   -2.3183   -3.8299 O.co2    1 ZINC000003830449   -0.6500
20     C20    -3.1824   -4.1772   -0.8476 C.2      1 ZINC000003830449   -0.1900
21     C21    -4.0414   -5.2580   -1.4518 C.3      1 ZINC000003830449    0.1700
22     O22    -4.4638   -6.1787   -0.4115 O.3      1 ZINC000003830449   -0.3900
23     C23    -5.1566   -7.2653   -0.8014 C.2      1 ZINC000003830449    0.6500
24     N24    -5.5784   -8.1598    0.1143 N.am     1 ZINC000003830449   -0.8400
25     O25    -5.4014   -7.4396   -1.9787 O.2      1 ZINC000003830449   -0.5700
26     C26    -2.8614   -4.3355    0.6021 C.3      1 ZINC000003830449   -0.0100
27     S27    -2.3486   -2.7682    1.3690 S.3      1 ZINC000003830449   -0.2200
28     C28    -1.2468   -2.1036    0.0766 C.3      1 ZINC000003830449    0.1300
29     H29    -0.2659   -2.5768    0.0311 H        1 ZINC000003830449    0.1400
30     H30     1.0505    1.8002   -0.1900 H        1 ZINC000003830449    0.1000
31     H31    -0.5094    1.7689   -1.0467 H        1 ZINC000003830449    0.0600
32     H32    -0.4718    1.8127    0.7324 H        1 ZINC000003830449    0.0500
33     H33    -1.8212    0.7607    1.4620 H        1 ZINC000003830449    0.4000
34     H34    -4.0824    0.2880    2.8499 H        1 ZINC000003830449    0.1100
35     H35    -4.3914    1.5523    1.6357 H        1 ZINC000003830449    0.1000
36     H36    -5.7845   -1.6453    3.0285 H        1 ZINC000003830449    0.1400
37     H37    -8.1925   -2.1909    2.4071 H        1 ZINC000003830449    0.1400
38     H38    -9.1874   -0.6620    0.6431 H        1 ZINC000003830449    0.1600
39     H39    -4.9185   -4.8077   -1.9166 H        1 ZINC000003830449    0.1000
40     H40    -3.4685   -5.7989   -2.2050 H        1 ZINC000003830449    0.1000
41     H41    -5.3829   -8.0207    1.0541 H        1 ZINC000003830449    0.4000
42     H42    -6.0775   -8.9427   -0.1666 H        1 ZINC000003830449    0.4200
43     H43    -3.7436   -4.7108    1.1207 H        1 ZINC000003830449    0.1200
44     H44    -2.0553   -5.0615    0.7085 H        1 ZINC000003830449    0.0900
@<TRIPOS>BOND
1     1     2     1
2     1     30    1
3     1     31    1
4     1     32    1
5     2     3     1
6     3     28    1
7     3     4     1
8     3     13    1
9     4     5     am
10    4     33    1
11    5     6     2
12    5     7     1
13    7     8     1
14    7     34    1
15    7     35    1
16    8     12    1
17    8     9     2
18    9     10    1
19    9     36    1
20    10    11    2
21    10    37    1
22    11    12    1
23    11    38    1
24    13    14    2
25    13    15    am
26    15    28    1
27    15    16    1
28    16    17    1
29    16    20    2
30    17    18    ar
31    17    19    ar
32    20    21    1
33    20    26    1
34    21    22    1
35    21    39    1
36    21    40    1
37    22    23    1
38    23    24    am
39    23    25    2
40    24    41    1
41    24    42    1
42    26    27    1
43    26    43    1
44    26    44    1
45    27    28    1
46    28    29    1
@<TRIPOS>SUBSTRUCTURE
1   ZINC000003830449 1     RESIDUE    1   A     ZIN   1
