@<TRIPOS>MOLECULE
ZINC000000018635
36    38    1     0     0
SMALL
USER_CHARGES
@<TRIPOS>ATOM
1      C1     -0.0178    1.4648    0.0101 C.3      1 ZINC000000018635   -0.0500
2      N2      0.0021   -0.0041    0.0020 N.4      1 ZINC000000018635   -0.5100
3      H3      0.4744   -0.3295   -0.8281 H        1 ZINC000000018635    0.4300
4      H4      0.4901   -0.3383    0.8195 H        1 ZINC000000018635    0.4300
5      C5     -1.3761   -0.5125    0.0124 C.3      1 ZINC000000018635    0.0200
6      H6     -1.9294   -0.0810   -0.8217 H        1 ZINC000000018635    0.1400
7      C7     -2.0537   -0.1255    1.3300 C.3      1 ZINC000000018635   -0.1400
8      C8     -3.5525   -0.4328    1.2417 C.3      1 ZINC000000018635   -0.0600
9      C9     -3.7254   -1.8517    0.7525 C.2      1 ZINC000000018635    0.0700
10     C10    -2.7478   -2.5610    0.1495 C.2      1 ZINC000000018635   -0.1700
11     C11    -1.3590   -2.0399   -0.1203 C.3      1 ZINC000000018635   -0.0600
12     C12    -3.2997   -3.8634   -0.1645 C.ar     1 ZINC000000018635   -0.1100
13     C13    -2.7637   -4.9944   -0.7788 C.ar     1 ZINC000000018635    0.0000
14     C14    -3.6147   -6.0958   -0.9134 C.ar     1 ZINC000000018635   -0.1600
15     C15    -3.1068   -7.3248   -1.5551 C.2      1 ZINC000000018635    0.5600
16     N16    -3.9133   -8.3958   -1.6930 N.am     1 ZINC000000018635   -0.8500
17     O17    -1.9610   -7.3707   -1.9591 O.2      1 ZINC000000018635   -0.5400
18     C18    -4.9354   -6.0613   -0.4542 C.ar     1 ZINC000000018635   -0.0600
19     C19    -5.4710   -4.9548    0.1507 C.ar     1 ZINC000000018635   -0.1300
20     C20    -4.6434   -3.8407    0.2975 C.ar     1 ZINC000000018635    0.1300
21     N21    -4.8627   -2.6117    0.8426 N.pl3    1 ZINC000000018635   -0.5700
22     H22     1.0047    1.8421    0.0024 H        1 ZINC000000018635    0.1300
23     H23    -0.5450    1.8259   -0.8730 H        1 ZINC000000018635    0.1200
24     H24    -0.5280    1.8163    0.9069 H        1 ZINC000000018635    0.1200
25     H25    -1.6130   -0.6969    2.1470 H        1 ZINC000000018635    0.1000
26     H26    -1.9112    0.9396    1.5129 H        1 ZINC000000018635    0.1000
27     H27    -4.0064   -0.3276    2.2271 H        1 ZINC000000018635    0.1000
28     H28    -4.0266    0.2557    0.5422 H        1 ZINC000000018635    0.1000
29     H29    -1.0537   -2.3172   -1.1293 H        1 ZINC000000018635    0.1000
30     H30    -0.6627   -2.4617    0.6045 H        1 ZINC000000018635    0.0900
31     H31    -1.7437   -5.0185   -1.1329 H        1 ZINC000000018635    0.1500
32     H32    -4.8275   -8.3592   -1.3707 H        1 ZINC000000018635    0.4000
33     H33    -3.5796   -9.2031   -2.1146 H        1 ZINC000000018635    0.4100
34     H34    -5.5543   -6.9373   -0.5805 H        1 ZINC000000018635    0.1300
35     H35    -6.4931   -4.9448    0.4994 H        1 ZINC000000018635    0.1400
36     H36    -5.6991   -2.3182    1.2366 H        1 ZINC000000018635    0.4200
@<TRIPOS>BOND
1     1     2     1
2     1     22    1
3     1     23    1
4     1     24    1
5     2     3     1
6     2     4     1
7     2     5     1
8     5     6     1
9     5     11    1
10    5     7     1
11    7     8     1
12    7     25    1
13    7     26    1
14    8     9     1
15    8     27    1
16    8     28    1
17    9     21    1
18    9     10    2
19    10    11    1
20    10    12    1
21    11    29    1
22    11    30    1
23    12    20    ar
24    12    13    ar
25    13    14    ar
26    13    31    1
27    14    15    1
28    14    18    ar
29    15    16    am
30    15    17    2
31    16    32    1
32    16    33    1
33    18    19    ar
34    18    34    1
35    19    20    ar
36    19    35    1
37    20    21    1
38    21    36    1
@<TRIPOS>SUBSTRUCTURE
1   ZINC000000018635 1     RESIDUE    1   A     ZIN   1
