@<TRIPOS>MOLECULE
ZINC000000002212
35    38    1     0     0
SMALL
USER_CHARGES
@<TRIPOS>ATOM
1      C1      0.1673    1.6696    0.3289 C.3      1 ZINC000000002212   -0.0700
2      C2      0.1109    0.1696    0.1952 C.2      1 ZINC000000002212    0.1900
3      N3      0.0754   -0.5120   -0.9201 N.2      1 ZINC000000002212   -0.2800
4      N4      0.0162   -1.7724   -0.6624 N.2      1 ZINC000000002212   -0.2600
5      C5     -0.0007   -1.9548    0.6264 C.2      1 ZINC000000002212    0.1600
6      C6     -0.1303   -3.2622    1.3666 C.3      1 ZINC000000002212    0.1200
7      N7     -1.3424   -3.1919    2.1901 N.2      1 ZINC000000002212   -0.4600
8      C8     -1.4839   -2.3123    3.1195 C.2      1 ZINC000000002212    0.2600
9      C9     -2.7469   -2.3780    3.8899 C.ar     1 ZINC000000002212   -0.0600
10     C10    -3.0172   -3.4815    4.6989 C.ar     1 ZINC000000002212   -0.0700
11     C11    -4.1955   -3.5368    5.4147 C.ar     1 ZINC000000002212   -0.1100
12     C12    -5.1089   -2.5010    5.3314 C.ar     1 ZINC000000002212   -0.0900
13     C13    -4.8481   -1.4035    4.5309 C.ar     1 ZINC000000002212   -0.1100
14     C14    -3.6697   -1.3329    3.8141 C.ar     1 ZINC000000002212   -0.0100
15     Cl15   -3.3430    0.0452    2.8101 Cl       1 ZINC000000002212   -0.0600
16     C16    -0.5464   -1.2532    3.5088 C.ar     1 ZINC000000002212   -0.0800
17     C17    -0.3601   -1.0066    4.8771 C.ar     1 ZINC000000002212   -0.0600
18     C18     0.4848   -0.0042    5.2987 C.ar     1 ZINC000000002212   -0.0300
19     Cl19    0.7066    0.2835    6.9963 Cl       1 ZINC000000002212   -0.0400
20     C20     1.1587    0.7750    4.3724 C.ar     1 ZINC000000002212   -0.0700
21     C21     0.9958    0.5376    3.0232 C.ar     1 ZINC000000002212   -0.1100
22     C22     0.1589   -0.4818    2.5824 C.ar     1 ZINC000000002212    0.1600
23     N23     0.0931   -0.7335    1.2109 N.pl3    1 ZINC000000002212   -0.4300
24     H24     1.2078    1.9940    0.3460 H        1 ZINC000000002212    0.0900
25     H25    -0.3427    2.1293   -0.5177 H        1 ZINC000000002212    0.1000
26     H26    -0.3223    1.9705    1.2551 H        1 ZINC000000002212    0.0800
27     H27    -0.2148   -4.0829    0.6543 H        1 ZINC000000002212    0.1400
28     H28     0.7409   -3.4136    2.0039 H        1 ZINC000000002212    0.1000
29     H29    -2.3057   -4.2914    4.7646 H        1 ZINC000000002212    0.1400
30     H30    -4.4054   -4.3910    6.0414 H        1 ZINC000000002212    0.1400
31     H31    -6.0297   -2.5497    5.8936 H        1 ZINC000000002212    0.1400
32     H32    -5.5653   -0.5983    4.4698 H        1 ZINC000000002212    0.1400
33     H33    -0.8838   -1.6076    5.6058 H        1 ZINC000000002212    0.1500
34     H34     1.8117    1.5679    4.7064 H        1 ZINC000000002212    0.1500
35     H35     1.5217    1.1480    2.3041 H        1 ZINC000000002212    0.1500
@<TRIPOS>BOND
1     1     2     1
2     1     24    1
3     1     25    1
4     1     26    1
5     2     23    1
6     2     3     2
7     3     4     1
8     4     5     2
9     5     23    1
10    5     6     1
11    6     7     1
12    6     27    1
13    6     28    1
14    7     8     2
15    8     9     1
16    8     16    1
17    9     14    ar
18    9     10    ar
19    10    11    ar
20    10    29    1
21    11    12    ar
22    11    30    1
23    12    13    ar
24    12    31    1
25    13    14    ar
26    13    32    1
27    14    15    1
28    16    22    ar
29    16    17    ar
30    17    18    ar
31    17    33    1
32    18    19    1
33    18    20    ar
34    20    21    ar
35    20    34    1
36    21    22    ar
37    21    35    1
38    22    23    1
@<TRIPOS>SUBSTRUCTURE
1   ZINC000000002212 1     RESIDUE    1   A     ZIN   1
