@<TRIPOS>MOLECULE
ZINC000001534965
54    57    1     0     0
SMALL
USER_CHARGES
@<TRIPOS>ATOM
1      O1     -1.8851   -3.7061    0.7712 O.co2    1 ZINC000001534965   -0.6800
2      C2     -2.3426   -3.6514    1.9000 C.2      1 ZINC000001534965    0.4900
3      O3     -1.8349   -4.3042    2.7959 O.co2    1 ZINC000001534965   -0.7100
4      C4     -3.5319   -2.7722    2.1891 C.3      1 ZINC000001534965   -0.2200
5      C5     -3.9665   -2.0635    0.9047 C.3      1 ZINC000001534965    0.1400
6      H6     -4.1522   -2.8037    0.1264 H        1 ZINC000001534965    0.0900
7      O7     -2.9330   -1.1734    0.4787 O.3      1 ZINC000001534965   -0.5300
8      C8     -5.2471   -1.2690    1.1689 C.3      1 ZINC000001534965   -0.1800
9      C9     -5.7505   -0.6622   -0.1423 C.3      1 ZINC000001534965    0.1400
10     H10    -5.8739   -1.4513   -0.8841 H        1 ZINC000001534965    0.1100
11     O11    -4.8029    0.2954   -0.6187 O.3      1 ZINC000001534965   -0.5400
12     C12    -7.0751    0.0164    0.0941 C.2      1 ZINC000001534965   -0.1500
13     C13    -7.2360    1.2917   -0.2375 C.2      1 ZINC000001534965   -0.1300
14     C14    -8.5603    1.9279   -0.1013 C.ar     1 ZINC000001534965   -0.0700
15     C15    -9.1836    2.5133   -1.2140 C.ar     1 ZINC000001534965    0.2100
16     C16    -8.4830    2.4839   -2.5479 C.3      1 ZINC000001534965   -0.1200
17     C17    -9.2748    2.9482   -3.7720 C.3      1 ZINC000001534965   -0.1600
18     C18    -8.1581    3.8269   -3.2049 C.3      1 ZINC000001534965   -0.1600
19     N19   -10.3582    3.0837   -1.1229 N.ar     1 ZINC000001534965   -0.4800
20     C20   -11.0310    3.1425    0.0325 C.ar     1 ZINC000001534965    0.1300
21     C21   -12.2913    3.7612    0.1004 C.ar     1 ZINC000001534965   -0.0900
22     C22   -12.9585    3.8093    1.2862 C.ar     1 ZINC000001534965   -0.1000
23     C23   -12.4123    3.2539    2.4408 C.ar     1 ZINC000001534965   -0.1200
24     C24   -11.1930    2.6461    2.4131 C.ar     1 ZINC000001534965   -0.0900
25     C25   -10.4792    2.5785    1.2085 C.ar     1 ZINC000001534965   -0.0900
26     C26    -9.2121    1.9490    1.1401 C.ar     1 ZINC000001534965    0.0100
27     C27    -8.5954    1.3398    2.3379 C.ar     1 ZINC000001534965   -0.0600
28     C28    -7.4446    1.9004    2.8953 C.ar     1 ZINC000001534965   -0.0600
29     C29    -6.8735    1.3281    4.0123 C.ar     1 ZINC000001534965   -0.1500
30     C30    -7.4399    0.1984    4.5817 C.ar     1 ZINC000001534965    0.1100
31     F31    -6.8767   -0.3581    5.6764 F        1 ZINC000001534965   -0.1300
32     C32    -8.5824   -0.3623    4.0324 C.ar     1 ZINC000001534965   -0.1500
33     C33    -9.1650    0.2053    2.9188 C.ar     1 ZINC000001534965   -0.0800
34     H34    -4.3534   -3.3836    2.5626 H        1 ZINC000001534965    0.0600
35     H35    -3.2609   -2.0299    2.9399 H        1 ZINC000001534965    0.0600
36     H36    -2.7148   -0.4867    1.1237 H        1 ZINC000001534965    0.3500
37     H37    -6.0087   -1.9329    1.5781 H        1 ZINC000001534965    0.0700
38     H38    -5.0392   -0.4714    1.8822 H        1 ZINC000001534965    0.0600
39     H39    -4.6432    1.0280   -0.0081 H        1 ZINC000001534965    0.3700
40     H40    -7.8934   -0.5347    0.5334 H        1 ZINC000001534965    0.1100
41     H41    -6.3977    1.8635   -0.6070 H        1 ZINC000001534965    0.1300
42     H42    -7.7714    1.6701   -2.6874 H        1 ZINC000001534965    0.1300
43     H43    -9.0842    2.4397   -4.7172 H        1 ZINC000001534965    0.1000
44     H44   -10.3024    3.2748   -3.6125 H        1 ZINC000001534965    0.1100
45     H45    -8.4510    4.7317   -2.6723 H        1 ZINC000001534965    0.0900
46     H46    -7.2328    3.8966   -3.7769 H        1 ZINC000001534965    0.1000
47     H47   -12.7289    4.1974   -0.7854 H        1 ZINC000001534965    0.1300
48     H48   -13.9265    4.2859    1.3324 H        1 ZINC000001534965    0.1300
49     H49   -12.9615    3.3060    3.3693 H        1 ZINC000001534965    0.1300
50     H50   -10.7790    2.2185    3.3142 H        1 ZINC000001534965    0.1300
51     H51    -7.0023    2.7804    2.4522 H        1 ZINC000001534965    0.1300
52     H52    -5.9832    1.7607    4.4441 H        1 ZINC000001534965    0.1400
53     H53    -9.0197   -1.2425    4.4800 H        1 ZINC000001534965    0.1400
54     H54   -10.0553   -0.2321    2.4918 H        1 ZINC000001534965    0.1300
@<TRIPOS>BOND
1     1     2     ar
2     2     3     ar
3     2     4     1
4     4     5     1
5     4     34    1
6     4     35    1
7     5     6     1
8     5     7     1
9     5     8     1
10    7     36    1
11    8     9     1
12    8     37    1
13    8     38    1
14    9     10    1
15    9     11    1
16    9     12    1
17    11    39    1
18    12    13    2
19    12    40    1
20    13    14    1
21    13    41    1
22    14    26    ar
23    14    15    ar
24    15    16    1
25    15    19    ar
26    16    18    1
27    16    17    1
28    16    42    1
29    17    18    1
30    17    43    1
31    17    44    1
32    18    45    1
33    18    46    1
34    19    20    ar
35    20    25    ar
36    20    21    ar
37    21    22    ar
38    21    47    1
39    22    23    ar
40    22    48    1
41    23    24    ar
42    23    49    1
43    24    25    ar
44    24    50    1
45    25    26    ar
46    26    27    1
47    27    33    ar
48    27    28    ar
49    28    29    ar
50    28    51    1
51    29    30    ar
52    29    52    1
53    30    31    1
54    30    32    ar
55    32    33    ar
56    32    53    1
57    33    54    1
@<TRIPOS>SUBSTRUCTURE
1   ZINC000001534965 1     RESIDUE    1   A     ZIN   1
