@<TRIPOS>MOLECULE
ZINC000000057206
34    34    1     0     0
SMALL
USER_CHARGES
@<TRIPOS>ATOM
1      C1      0.8410    1.4947    0.1088 C.3      1 ZINC000000057206   -0.1800
2      C2      0.0952    0.1689   -0.0552 C.3      1 ZINC000000057206    0.0400
3      H3     -0.9732    0.3624   -0.1509 H        1 ZINC000000057206    0.1000
4      N4      0.5781   -0.5188   -1.2601 N.3      1 ZINC000000057206   -0.6600
5      C5     -0.4097   -0.4374   -2.3443 C.3      1 ZINC000000057206    0.1000
6      C6     -0.7443    1.0298   -2.6204 C.3      1 ZINC000000057206   -0.1800
7      C7      0.1676   -1.0756   -3.6093 C.3      1 ZINC000000057206   -0.1400
8      C8     -1.6815   -1.1817   -1.9324 C.3      1 ZINC000000057206   -0.1400
9      C9      0.3424   -0.6991    1.1517 C.2      1 ZINC000000057206    0.4000
10     O10     1.1660   -1.5877    1.1010 O.2      1 ZINC000000057206   -0.4200
11     C11    -0.4157   -0.4683    2.3918 C.ar     1 ZINC000000057206   -0.1500
12     C12    -1.3703    0.5517    2.4523 C.ar     1 ZINC000000057206   -0.0700
13     C13    -2.0770    0.7623    3.6177 C.ar     1 ZINC000000057206   -0.1200
14     C14    -1.8435   -0.0322    4.7262 C.ar     1 ZINC000000057206   -0.0800
15     C15    -0.8992   -1.0447    4.6750 C.ar     1 ZINC000000057206   -0.0500
16     Cl16   -0.6148   -2.0352    6.0720 Cl       1 ZINC000000057206   -0.0600
17     C17    -0.1890   -1.2718    3.5139 C.ar     1 ZINC000000057206   -0.0600
18     H18     1.8974    1.2973    0.2904 H        1 ZINC000000057206    0.0700
19     H19     0.7330    2.0871   -0.7998 H        1 ZINC000000057206    0.0700
20     H20     0.4237    2.0443    0.9525 H        1 ZINC000000057206    0.0700
21     H21     1.4696   -0.1491   -1.5547 H        1 ZINC000000057206    0.3500
22     H22     0.1740    1.5788   -2.8290 H        1 ZINC000000057206    0.0600
23     H23    -1.4100    1.0950   -3.4809 H        1 ZINC000000057206    0.0600
24     H24    -1.2351    1.4609   -1.7478 H        1 ZINC000000057206    0.0600
25     H25     0.4060   -2.1209   -3.4127 H        1 ZINC000000057206    0.0700
26     H26    -0.5654   -1.0152   -4.4138 H        1 ZINC000000057206    0.0600
27     H27     1.0736   -0.5453   -3.9027 H        1 ZINC000000057206    0.0600
28     H28    -2.1500   -0.6646   -1.0951 H        1 ZINC000000057206    0.0500
29     H29    -2.3735   -1.2118   -2.7740 H        1 ZINC000000057206    0.0600
30     H30    -1.4269   -2.1989   -1.6348 H        1 ZINC000000057206    0.0700
31     H31    -1.5535    1.1734    1.5884 H        1 ZINC000000057206    0.1400
32     H32    -2.8144    1.5498    3.6654 H        1 ZINC000000057206    0.1400
33     H33    -2.3999    0.1380    5.6360 H        1 ZINC000000057206    0.1400
34     H34     0.5469   -2.0613    3.4749 H        1 ZINC000000057206    0.1400
@<TRIPOS>BOND
1     1     2     1
2     1     18    1
3     1     19    1
4     1     20    1
5     2     3     1
6     2     4     1
7     2     9     1
8     4     5     1
9     4     21    1
10    5     6     1
11    5     7     1
12    5     8     1
13    6     22    1
14    6     23    1
15    6     24    1
16    7     25    1
17    7     26    1
18    7     27    1
19    8     28    1
20    8     29    1
21    8     30    1
22    9     10    2
23    9     11    1
24    11    17    ar
25    11    12    ar
26    12    13    ar
27    12    31    1
28    13    14    ar
29    13    32    1
30    14    15    ar
31    14    33    1
32    15    16    1
33    15    17    ar
34    17    34    1
@<TRIPOS>SUBSTRUCTURE
1   ZINC000000057206 1     RESIDUE    1   A     ZIN   1
