@<TRIPOS>MOLECULE
ZINC000095616601
50    53    1     0     0
SMALL
USER_CHARGES
@<TRIPOS>ATOM
1      C1      0.9966    1.0179   -0.7032 C.3      1 ZINC000095616601    0.0100
2      O2      1.2969   -0.3738   -0.8254 O.3      1 ZINC000095616601   -0.2800
3      C3      1.9246   -0.9638    0.2251 C.ar     1 ZINC000095616601    0.2200
4      C4      2.2506   -2.3252    0.1622 C.ar     1 ZINC000095616601    0.1200
5      O5      1.9348   -3.0418   -0.9499 O.3      1 ZINC000095616601   -0.2900
6      C6      2.2932   -4.4251   -0.9539 C.3      1 ZINC000095616601    0.0100
7      C7      2.8826   -2.9405    1.2053 C.ar     1 ZINC000095616601   -0.1200
8      C8      3.2084   -2.2043    2.3507 C.ar     1 ZINC000095616601   -0.1800
9      C9      3.8638   -2.7961    3.4579 C.ar     1 ZINC000095616601    0.5500
10     N10     4.2069   -4.1321    3.4446 N.pl3    1 ZINC000095616601   -0.7700
11     N11     4.1398   -2.0348    4.5068 N.ar     1 ZINC000095616601   -0.5800
12     C12     3.8151   -0.7451    4.5328 C.ar     1 ZINC000095616601    0.6300
13     N13     4.1314   -0.0042    5.6580 N.3      1 ZINC000095616601   -0.4700
14     C14     4.9443    1.1675    5.3054 C.3      1 ZINC000095616601    0.0300
15     C15     5.1197    2.0544    6.5427 C.3      1 ZINC000095616601    0.1200
16     N16     5.6576    1.2304    7.6358 N.am     1 ZINC000095616601   -0.6200
17     C17     6.7484    1.6211    8.3243 C.2      1 ZINC000095616601    0.6100
18     O18     7.3744    2.6017    7.9672 O.2      1 ZINC000095616601   -0.5100
19     C19     7.1808    0.8645    9.5039 C.2      1 ZINC000095616601   -0.1000
20     C20     8.3370    1.0607   10.2034 C.2      1 ZINC000095616601   -0.1000
21     C21     8.3416    0.1218   11.2468 C.2      1 ZINC000095616601   -0.2200
22     C22     7.2024   -0.5972   11.1399 C.2      1 ZINC000095616601    0.0000
23     O23     6.5033   -0.1434   10.0915 O.3      1 ZINC000095616601   -0.1700
24     C24     4.9739   -0.0316    7.9573 C.3      1 ZINC000095616601    0.1000
25     C25     4.8043   -0.8364    6.6643 C.3      1 ZINC000095616601    0.0500
26     N26     3.2046   -0.1431    3.5307 N.ar     1 ZINC000095616601   -0.5500
27     H27     2.9879    0.8002    3.5949 H        1 ZINC000095616601    0.4400
28     C28     2.8815   -0.8279    2.4218 C.ar     1 ZINC000095616601    0.2100
29     C29     2.2389   -0.2161    1.3388 C.ar     1 ZINC000095616601   -0.2300
30     H30     1.9210    1.5781   -0.5621 H        1 ZINC000095616601    0.0700
31     H31     0.4974    1.3627   -1.6088 H        1 ZINC000095616601    0.1200
32     H32     0.3423    1.1745    0.1544 H        1 ZINC000095616601    0.0700
33     H33     3.3730   -4.5210   -0.8406 H        1 ZINC000095616601    0.0600
34     H34     1.7947   -4.9319   -0.1276 H        1 ZINC000095616601    0.0600
35     H35     1.9851   -4.8775   -1.8965 H        1 ZINC000095616601    0.1200
36     H36     3.1295   -3.9903    1.1467 H        1 ZINC000095616601    0.1600
37     H37     3.9995   -4.6784    2.6704 H        1 ZINC000095616601    0.4300
38     H38     4.6556   -4.5253    4.2095 H        1 ZINC000095616601    0.4300
39     H39     5.9217    0.8390    4.9519 H        1 ZINC000095616601    0.0800
40     H40     4.4444    1.7339    4.5198 H        1 ZINC000095616601    0.1000
41     H41     5.8148    2.8633    6.3178 H        1 ZINC000095616601    0.1200
42     H42     4.1549    2.4679    6.8365 H        1 ZINC000095616601    0.0900
43     H43     9.1001    1.7958    9.9943 H        1 ZINC000095616601    0.1600
44     H44     9.1110   -0.0027   11.9944 H        1 ZINC000095616601    0.1600
45     H45     6.9034   -1.4028   11.7941 H        1 ZINC000095616601    0.2200
46     H46     5.5726   -0.6017    8.6676 H        1 ZINC000095616601    0.1300
47     H47     3.9952    0.1814    8.3871 H        1 ZINC000095616601    0.0900
48     H48     4.2028   -1.7232    6.8641 H        1 ZINC000095616601    0.1200
49     H49     5.7836   -1.1369    6.2919 H        1 ZINC000095616601    0.0800
50     H50     1.9880    0.8336    1.3777 H        1 ZINC000095616601    0.1700
@<TRIPOS>BOND
1     1     2     1
2     1     30    1
3     1     31    1
4     1     32    1
5     2     3     1
6     3     29    ar
7     3     4     ar
8     4     5     1
9     4     7     ar
10    5     6     1
11    6     33    1
12    6     34    1
13    6     35    1
14    7     8     ar
15    7     36    1
16    8     28    ar
17    8     9     ar
18    9     10    1
19    9     11    ar
20    10    37    1
21    10    38    1
22    11    12    ar
23    12    13    1
24    12    26    ar
25    13    25    1
26    13    14    1
27    14    15    1
28    14    39    1
29    14    40    1
30    15    16    1
31    15    41    1
32    15    42    1
33    16    17    am
34    16    24    1
35    17    18    2
36    17    19    1
37    19    23    1
38    19    20    2
39    20    21    1
40    20    43    1
41    21    22    2
42    21    44    1
43    22    23    1
44    22    45    1
45    24    25    1
46    24    46    1
47    24    47    1
48    25    48    1
49    25    49    1
50    26    27    1
51    26    28    ar
52    28    29    ar
53    29    50    1
@<TRIPOS>SUBSTRUCTURE
1   ZINC000095616601 1     RESIDUE    1   A     ZIN   1
