@<TRIPOS>MOLECULE
ZINC000000895099
19    18    1     0     0
SMALL
USER_CHARGES
@<TRIPOS>ATOM
1      C1     -0.0187    1.5258    0.0104 C.3      1 ZINC000000895099   -0.1600
2      C2      0.0021   -0.0041    0.0020 C.3      1 ZINC000000895099   -0.1000
3      C3      0.7421   -0.5109    1.2415 C.3      1 ZINC000000895099   -0.1600
4      C4     -1.4333   -0.5336    0.0129 C.3      1 ZINC000000895099   -0.0500
5      H5     -1.9605   -0.1726   -0.8702 H        1 ZINC000000895099    0.1300
6      N6     -2.1209   -0.0599    1.2215 N.4      1 ZINC000000895099   -0.6200
7      H7     -3.0675   -0.4092    1.2287 H        1 ZINC000000895099    0.4300
8      H8     -1.6329   -0.3941    2.0389 H        1 ZINC000000895099    0.4300
9      H9     -2.1346    0.9490    1.2270 H        1 ZINC000000895099    0.4100
10     C10    -1.4129   -2.0405    0.0046 C.2      1 ZINC000000895099    0.4900
11     O11    -1.3945   -2.6557    1.0571 O.co2    1 ZINC000000895099   -0.6700
12     O12    -1.4147   -2.6444   -1.0546 O.co2    1 ZINC000000895099   -0.6400
13     H13     1.0039    1.9031    0.0027 H        1 ZINC000000895099    0.0800
14     H14    -0.5459    1.8868   -0.8726 H        1 ZINC000000895099    0.0700
15     H15    -0.5289    1.8773    0.9072 H        1 ZINC000000895099    0.0500
16     H16     0.5123   -0.3556   -0.8948 H        1 ZINC000000895099    0.1100
17     H17     0.7568   -1.6008    1.2356 H        1 ZINC000000895099    0.0800
18     H18     1.7647   -0.1336    1.2338 H        1 ZINC000000895099    0.0700
19     H19     0.2319   -0.1594    2.1383 H        1 ZINC000000895099    0.0500
@<TRIPOS>BOND
1     1     2     1
2     1     13    1
3     1     14    1
4     1     15    1
5     2     3     1
6     2     4     1
7     2     16    1
8     3     17    1
9     3     18    1
10    3     19    1
11    4     5     1
12    4     6     1
13    4     10    1
14    6     7     1
15    6     8     1
16    6     9     1
17    10    11    ar
18    10    12    ar
@<TRIPOS>SUBSTRUCTURE
1   ZINC000000895099 1     RESIDUE    1   A     ZIN   1
