@<TRIPOS>MOLECULE
ZINC000004215736
46    50    1     0     0
SMALL
USER_CHARGES
@<TRIPOS>ATOM
1      C1     -0.0173    1.4248    0.0099 C.3      1 ZINC000004215736    0.0200
2      O2      0.0021   -0.0041    0.0020 O.3      1 ZINC000004215736   -0.3000
3      C3      0.6062   -0.6075   -1.0564 C.ar     1 ZINC000004215736    0.1300
4      C4      1.1854    0.1341   -2.0837 C.ar     1 ZINC000004215736   -0.1700
5      C5      1.7990   -0.4411   -3.1850 C.ar     1 ZINC000004215736   -0.0900
6      C6      1.8735   -1.8177   -3.3002 C.ar     1 ZINC000004215736   -0.1000
7      C7      2.4231   -2.5498   -4.4812 C.3      1 ZINC000004215736   -0.0800
8      C8      2.4123   -4.0596   -4.3145 C.3      1 ZINC000004215736    0.0400
9      H9      2.3543   -4.5046   -5.3078 H        1 ZINC000004215736    0.1400
10     C10     1.2467   -4.6033   -3.4906 C.3      1 ZINC000004215736   -0.0800
11     H11     1.3114   -5.6905   -3.4474 H        1 ZINC000004215736    0.1000
12     C12    -0.0947   -4.2007   -4.0950 C.3      1 ZINC000004215736   -0.1100
13     C13    -1.1997   -4.7786   -3.2115 C.3      1 ZINC000004215736   -0.1500
14     C14    -1.1603   -4.1962   -1.8180 C.3      1 ZINC000004215736    0.0900
15     H15    -1.8672   -4.7466   -1.1972 H        1 ZINC000004215736    0.0700
16     O16    -1.5934   -2.8362   -1.8882 O.3      1 ZINC000004215736   -0.5500
17     C17     0.1938   -4.2255   -1.1367 C.3      1 ZINC000004215736    0.1100
18     H18     0.3037   -5.1178   -0.5205 H        1 ZINC000004215736    0.1300
19     O19     0.2818   -3.0062   -0.3293 O.3      1 ZINC000004215736   -0.2700
20     C20     0.6790   -2.0011   -1.1595 C.ar     1 ZINC000004215736    0.1300
21     C21     1.3408   -2.5358   -2.2557 C.ar     1 ZINC000004215736   -0.1500
22     C22     1.3606   -4.0369   -2.0870 C.3      1 ZINC000004215736   -0.0500
23     C23     2.6906   -4.4512   -1.4551 C.3      1 ZINC000004215736   -0.1300
24     C24     3.8238   -3.9365   -2.3516 C.3      1 ZINC000004215736   -0.0100
25     N25     3.6655   -4.5123   -3.6947 N.4      1 ZINC000004215736   -0.3800
26     H26     4.4204   -4.1935   -4.2834 H        1 ZINC000004215736    0.4200
27     C27     3.7126   -5.9776   -3.6005 C.3      1 ZINC000004215736   -0.0500
28     H28     1.0053    1.8021    0.0021 H        1 ZINC000004215736    0.0600
29     H29    -0.5445    1.7859   -0.8732 H        1 ZINC000004215736    0.0600
30     H30    -0.5275    1.7763    0.9067 H        1 ZINC000004215736    0.1100
31     H31     1.1544    1.2117   -2.0186 H        1 ZINC000004215736    0.1400
32     H32     2.2200    0.1872   -3.9559 H        1 ZINC000004215736    0.1300
33     H33     1.8312   -2.2911   -5.3591 H        1 ZINC000004215736    0.1200
34     H34     3.4500   -2.2241   -4.6473 H        1 ZINC000004215736    0.1000
35     H35    -0.1753   -3.1140   -4.1231 H        1 ZINC000004215736    0.0900
36     H36    -0.1804   -4.6038   -5.1041 H        1 ZINC000004215736    0.0800
37     H37    -2.1674   -4.5579   -3.6621 H        1 ZINC000004215736    0.0900
38     H38    -1.0762   -5.8598   -3.1489 H        1 ZINC000004215736    0.0800
39     H39    -2.4915   -2.7266   -2.2295 H        1 ZINC000004215736    0.3800
40     H40     2.7788   -4.0120   -0.4614 H        1 ZINC000004215736    0.1200
41     H41     2.7419   -5.5377   -1.3840 H        1 ZINC000004215736    0.1000
42     H42     3.7851   -2.8480   -2.3929 H        1 ZINC000004215736    0.1400
43     H43     4.7824   -4.2455   -1.9348 H        1 ZINC000004215736    0.1300
44     H44     2.9061   -6.3263   -2.9555 H        1 ZINC000004215736    0.1200
45     H45     3.5955   -6.4095   -4.5944 H        1 ZINC000004215736    0.1200
46     H46     4.6711   -6.2841   -3.1817 H        1 ZINC000004215736    0.1300
@<TRIPOS>BOND
1     1     2     1
2     1     28    1
3     1     29    1
4     1     30    1
5     2     3     1
6     3     20    ar
7     3     4     ar
8     4     5     ar
9     4     31    1
10    5     6     ar
11    5     32    1
12    6     21    ar
13    6     7     1
14    7     8     1
15    7     33    1
16    7     34    1
17    8     9     1
18    8     25    1
19    8     10    1
20    10    11    1
21    10    22    1
22    10    12    1
23    12    13    1
24    12    35    1
25    12    36    1
26    13    14    1
27    13    37    1
28    13    38    1
29    14    15    1
30    14    16    1
31    14    17    1
32    16    39    1
33    17    18    1
34    17    22    1
35    17    19    1
36    19    20    1
37    20    21    ar
38    21    22    1
39    22    23    1
40    23    24    1
41    23    40    1
42    23    41    1
43    24    25    1
44    24    42    1
45    24    43    1
46    25    26    1
47    25    27    1
48    27    44    1
49    27    45    1
50    27    46    1
@<TRIPOS>SUBSTRUCTURE
1   ZINC000004215736 1     RESIDUE    1   A     ZIN   1
