@<TRIPOS>MOLECULE
ZINC000095616600
54    57    1     0     0
SMALL
USER_CHARGES
@<TRIPOS>ATOM
1      C1     -0.0205    1.3984   -0.0098 C.3      1 ZINC000095616600    0.0100
2      O2     -0.0076   -0.0303   -0.0354 O.3      1 ZINC000095616600   -0.2800
3      C3     -1.2123   -0.6581   -0.0329 C.ar     1 ZINC000095616600    0.2200
4      C4     -1.2644   -2.0583   -0.0514 C.ar     1 ZINC000095616600    0.1200
5      O5     -0.1081   -2.7742   -0.0721 O.3      1 ZINC000095616600   -0.2900
6      C6     -0.2268   -4.1981   -0.0903 C.3      1 ZINC000095616600    0.0100
7      C7     -2.4637   -2.7122   -0.0483 C.ar     1 ZINC000095616600   -0.1200
8      C8     -3.6549   -1.9768   -0.0270 C.ar     1 ZINC000095616600   -0.1800
9      C9     -4.9227   -2.6080   -0.0224 C.ar     1 ZINC000095616600    0.5500
10     N10    -5.0275   -3.9833   -0.0390 N.pl3    1 ZINC000095616600   -0.7700
11     N11    -6.0058   -1.8449   -0.0014 N.ar     1 ZINC000095616600   -0.5800
12     C12    -5.9194   -0.5176    0.0151 C.ar     1 ZINC000095616600    0.6300
13     N13    -7.0883    0.2229    0.0371 N.3      1 ZINC000095616600   -0.4700
14     C14    -7.1074    1.1425    1.1825 C.3      1 ZINC000095616600    0.0300
15     C15    -8.3249    2.0664    1.0713 C.3      1 ZINC000095616600    0.1200
16     N16    -9.5293    1.2359    0.9204 N.am     1 ZINC000095616600   -0.6200
17     C17   -10.6020    1.4221    1.7148 C.2      1 ZINC000095616600    0.5200
18     O18   -10.5535    2.2276    2.6202 O.2      1 ZINC000095616600   -0.5000
19     C19   -11.8617    0.6296    1.4780 C.3      1 ZINC000095616600    0.0600
20     H20   -12.1276    0.6496    0.4211 H        1 ZINC000095616600    0.1000
21     C21   -11.6758   -0.8319    1.9582 C.3      1 ZINC000095616600   -0.1500
22     C22   -13.1483   -1.2405    2.2356 C.3      1 ZINC000095616600   -0.1500
23     C23   -13.7654    0.0811    2.7413 C.3      1 ZINC000095616600    0.0500
24     O24   -12.9374    1.1537    2.2728 O.3      1 ZINC000095616600   -0.3500
25     C25    -9.5320    0.1964   -0.1202 C.3      1 ZINC000095616600    0.1000
26     C26    -8.2669   -0.6538    0.0380 C.3      1 ZINC000095616600    0.0500
27     N27    -4.7659    0.1220    0.0119 N.ar     1 ZINC000095616600   -0.5500
28     H28    -4.7525    1.0918    0.0248 H        1 ZINC000095616600    0.4400
29     C29    -3.6102   -0.5611   -0.0088 C.ar     1 ZINC000095616600    0.2100
30     C30    -2.3700    0.0885   -0.0065 C.ar     1 ZINC000095616600   -0.2300
31     H31     1.0037    1.7712   -0.0148 H        1 ZINC000095616600    0.1200
32     H32    -0.5477    1.7728   -0.8874 H        1 ZINC000095616600    0.0700
33     H33    -0.5275    1.7411    0.8922 H        1 ZINC000095616600    0.0700
34     H34    -0.7775   -4.5055   -0.9793 H        1 ZINC000095616600    0.0600
35     H35     0.7671   -4.6454   -0.1058 H        1 ZINC000095616600    0.1200
36     H36    -0.7605   -4.5296    0.8004 H        1 ZINC000095616600    0.0600
37     H37    -2.4929   -3.7918   -0.0627 H        1 ZINC000095616600    0.1600
38     H38    -4.2267   -4.5305   -0.0539 H        1 ZINC000095616600    0.4300
39     H39    -5.9019   -4.4031   -0.0356 H        1 ZINC000095616600    0.4300
40     H40    -7.1687    0.5697    2.1079 H        1 ZINC000095616600    0.0800
41     H41    -6.1960    1.7404    1.1841 H        1 ZINC000095616600    0.1000
42     H42    -8.4085    2.6721    1.9736 H        1 ZINC000095616600    0.1200
43     H43    -8.2151    2.7137    0.2012 H        1 ZINC000095616600    0.0900
44     H44   -11.2375   -1.4500    1.1747 H        1 ZINC000095616600    0.0900
45     H45   -11.0784   -0.8732    2.8689 H        1 ZINC000095616600    0.0800
46     H46   -13.6380   -1.5719    1.3199 H        1 ZINC000095616600    0.0900
47     H47   -13.1986   -2.0114    3.0045 H        1 ZINC000095616600    0.0900
48     H48   -14.7742    0.1940    2.3442 H        1 ZINC000095616600    0.0800
49     H49   -13.7934    0.0830    3.8310 H        1 ZINC000095616600    0.0800
50     H50   -10.4136   -0.4342   -0.0056 H        1 ZINC000095616600    0.1100
51     H51    -9.5382    0.6639   -1.1048 H        1 ZINC000095616600    0.0900
52     H52    -8.1965   -1.3587   -0.7905 H        1 ZINC000095616600    0.1200
53     H53    -8.3122   -1.2016    0.9793 H        1 ZINC000095616600    0.0800
54     H54    -2.3212    1.1672    0.0120 H        1 ZINC000095616600    0.1700
@<TRIPOS>BOND
1     1     2     1
2     1     31    1
3     1     32    1
4     1     33    1
5     2     3     1
6     3     30    ar
7     3     4     ar
8     4     5     1
9     4     7     ar
10    5     6     1
11    6     34    1
12    6     35    1
13    6     36    1
14    7     8     ar
15    7     37    1
16    8     29    ar
17    8     9     ar
18    9     10    1
19    9     11    ar
20    10    38    1
21    10    39    1
22    11    12    ar
23    12    13    1
24    12    27    ar
25    13    26    1
26    13    14    1
27    14    15    1
28    14    40    1
29    14    41    1
30    15    16    1
31    15    42    1
32    15    43    1
33    16    17    am
34    16    25    1
35    17    18    2
36    17    19    1
37    19    20    1
38    19    24    1
39    19    21    1
40    21    22    1
41    21    44    1
42    21    45    1
43    22    23    1
44    22    46    1
45    22    47    1
46    23    24    1
47    23    48    1
48    23    49    1
49    25    26    1
50    25    50    1
51    25    51    1
52    26    52    1
53    26    53    1
54    27    28    1
55    27    29    ar
56    29    30    ar
57    30    54    1
@<TRIPOS>SUBSTRUCTURE
1   ZINC000095616600 1     RESIDUE    1   A     ZIN   1
