@<TRIPOS>MOLECULE
ZINC000009212427
54    56    1     0     0
SMALL
USER_CHARGES
@<TRIPOS>ATOM
1      N1     -0.0067    1.3666    0.0430 N.pl3    1 ZINC000009212427   -0.8400
2      C2      0.0094   -0.0043    0.0271 C.2      1 ZINC000009212427    0.6000
3      N3     -1.1322   -0.6594    0.0207 N.2      1 ZINC000009212427   -0.6800
4      C4     -1.1591   -1.9968    0.0053 C.2      1 ZINC000009212427    0.4400
5      C5      0.0346   -2.7073   -0.0067 C.2      1 ZINC000009212427   -0.2200
6      C6      1.2446   -2.0039    0.0010 C.2      1 ZINC000009212427    0.5300
7      O7      2.3119   -2.5976   -0.0084 O.2      1 ZINC000009212427   -0.6200
8      N8      1.2054   -0.6536    0.0129 N.pl3    1 ZINC000009212427   -0.7000
9      N9      0.0187   -4.1164   -0.0286 N.am     1 ZINC000009212427   -0.5100
10     C10     1.1239   -4.8129   -0.3598 C.2      1 ZINC000009212427    0.4800
11     O11     1.1248   -6.0235   -0.2794 O.2      1 ZINC000009212427   -0.6000
12     C12    -1.2320   -4.8100    0.3189 C.3      1 ZINC000009212427    0.1000
13     H13    -1.1828   -5.8468   -0.0138 H        1 ZINC000009212427    0.1000
14     C14    -1.4459   -4.7626    1.8331 C.3      1 ZINC000009212427    0.1300
15     N15    -0.2691   -5.3134    2.5100 N.pl3    1 ZINC000009212427   -0.7300
16     C16    -0.2312   -5.3752    3.8985 C.ar     1 ZINC000009212427    0.2400
17     C17    -1.3146   -4.9185    4.6440 C.ar     1 ZINC000009212427   -0.2100
18     C18    -1.2801   -4.9783    6.0184 C.ar     1 ZINC000009212427   -0.0200
19     C19    -0.1556   -5.4983    6.6659 C.ar     1 ZINC000009212427   -0.1800
20     C20    -0.1156   -5.5643    8.1391 C.2      1 ZINC000009212427    0.5600
21     O21    -1.0613   -5.1661    8.7914 O.2      1 ZINC000009212427   -0.5700
22     N22     0.9693   -6.0659    8.7619 N.am     1 ZINC000009212427   -0.6800
23     C23     1.0090   -6.1315   10.2249 C.3      1 ZINC000009212427    0.0700
24     H24     0.0108   -6.3463   10.6063 H        1 ZINC000009212427    0.0800
25     C25     1.9704   -7.2394   10.6598 C.3      1 ZINC000009212427   -0.0800
26     C26     1.4237   -8.5953   10.2087 C.3      1 ZINC000009212427   -0.1800
27     C27     2.3706   -9.6865   10.6370 C.2      1 ZINC000009212427    0.4900
28     O28     3.3884   -9.4058   11.2467 O.co2    1 ZINC000009212427   -0.7000
29     O29     2.1189  -10.8501   10.3740 O.co2    1 ZINC000009212427   -0.7200
30     C30     1.4832   -4.8107   10.7742 C.2      1 ZINC000009212427    0.5000
31     O31     1.7621   -3.8991   10.0141 O.co2    1 ZINC000009212427   -0.6900
32     O32     1.5879   -4.6537   11.9787 O.co2    1 ZINC000009212427   -0.7100
33     C33     0.9307   -5.9561    5.9145 C.ar     1 ZINC000009212427   -0.0300
34     C34     0.8878   -5.8989    4.5402 C.ar     1 ZINC000009212427   -0.2000
35     C35    -2.3879   -4.0912   -0.3921 C.3      1 ZINC000009212427    0.1400
36     N36    -2.3658   -2.6757    0.0032 N.pl3    1 ZINC000009212427   -0.7300
37     H37     0.8276    1.8615    0.0439 H        1 ZINC000009212427    0.4000
38     H38    -0.8524    1.8417    0.0492 H        1 ZINC000009212427    0.4000
39     H39     2.0088   -4.2935   -0.6968 H        1 ZINC000009212427    0.1600
40     H40    -1.5951   -3.7295    2.1469 H        1 ZINC000009212427    0.0700
41     H41    -2.3246   -5.3523    2.0946 H        1 ZINC000009212427    0.0600
42     H42     0.4836   -5.6350    1.9895 H        1 ZINC000009212427    0.4000
43     H43    -2.1830   -4.5165    4.1432 H        1 ZINC000009212427    0.1200
44     H44    -2.1208   -4.6235    6.5962 H        1 ZINC000009212427    0.1300
45     H45     1.7237   -6.3836    8.2415 H        1 ZINC000009212427    0.3900
46     H46     2.9470   -7.0720   10.2056 H        1 ZINC000009212427    0.0500
47     H47     2.0683   -7.2301   11.7454 H        1 ZINC000009212427    0.0800
48     H48     0.4471   -8.7626   10.6629 H        1 ZINC000009212427    0.0500
49     H49     1.3258   -8.6046    9.1231 H        1 ZINC000009212427    0.0500
50     H50     1.8010   -6.3581    6.4119 H        1 ZINC000009212427    0.1200
51     H51     1.7266   -6.2527    3.9592 H        1 ZINC000009212427    0.1200
52     H52    -2.2624   -4.1728   -1.4718 H        1 ZINC000009212427    0.0600
53     H53    -3.3364   -4.5402   -0.0972 H        1 ZINC000009212427    0.0900
54     H54    -3.1849   -2.2236    0.2593 H        1 ZINC000009212427    0.4000
@<TRIPOS>BOND
1     1     2     1
2     1     37    1
3     1     38    1
4     2     8     1
5     2     3     2
6     3     4     1
7     4     36    1
8     4     5     2
9     5     6     1
10    5     9     1
11    6     7     2
12    6     8     1
13    9     10    am
14    9     12    1
15    10    11    2
16    10    39    1
17    12    13    1
18    12    14    1
19    12    35    1
20    14    15    1
21    14    40    1
22    14    41    1
23    15    16    1
24    15    42    1
25    16    34    ar
26    16    17    ar
27    17    18    ar
28    17    43    1
29    18    19    ar
30    18    44    1
31    19    20    1
32    19    33    ar
33    20    21    2
34    20    22    am
35    22    23    1
36    22    45    1
37    23    24    1
38    23    25    1
39    23    30    1
40    25    26    1
41    25    46    1
42    25    47    1
43    26    27    1
44    26    48    1
45    26    49    1
46    27    28    ar
47    27    29    ar
48    30    31    ar
49    30    32    ar
50    33    34    ar
51    33    50    1
52    34    51    1
53    35    36    1
54    35    52    1
55    35    53    1
56    36    54    1
@<TRIPOS>SUBSTRUCTURE
1   ZINC000009212427 1     RESIDUE    1   A     ZIN   1
