@<TRIPOS>MOLECULE
ZINC000164528615
103   109   1     0     0
SMALL
USER_CHARGES
@<TRIPOS>ATOM
1      C1      1.9616    3.5205   -3.0964 C.3      1 ZINC000164528615   -0.1500
2      C2      0.5191    3.5327   -3.6062 C.3      1 ZINC000164528615   -0.0700
3      C3     -0.4418    3.4211   -2.4208 C.3      1 ZINC000164528615   -0.1400
4      C4      0.2542    4.8397   -4.3562 C.3      1 ZINC000164528615   -0.1300
5      C5      0.3022    2.3493   -4.5516 C.3      1 ZINC000164528615    0.1600
6      H6      0.9570    2.4486   -5.4173 H        1 ZINC000164528615    0.1200
7      N7     -1.1072    2.3226   -4.9967 N.am     1 ZINC000164528615   -0.7000
8      C8     -1.3589    2.8416   -6.2316 C.2      1 ZINC000164528615    0.6500
9      O9     -0.4532    3.2847   -6.9097 O.2      1 ZINC000164528615   -0.5500
10     O10    -2.6246    2.8563   -6.6901 O.3      1 ZINC000164528615   -0.3600
11     C11    -2.8354    3.3937   -8.0221 C.3      1 ZINC000164528615    0.0800
12     H12    -1.8782    3.6463   -8.4758 H        1 ZINC000164528615    0.1100
13     C13    -3.7125    4.6486   -7.9406 C.3      1 ZINC000164528615   -0.1300
14     C14    -4.8356    4.4909   -8.9694 C.3      1 ZINC000164528615   -0.1200
15     C15    -4.7565    3.0758   -9.5486 C.3      1 ZINC000164528615   -0.1200
16     C16    -3.5723    2.3654   -8.8834 C.3      1 ZINC000164528615    0.0800
17     H17    -3.9382    1.5540   -8.2547 H        1 ZINC000164528615    0.0800
18     O18    -2.7000    1.8430   -9.8847 O.3      1 ZINC000164528615   -0.3700
19     C19    -2.3733    0.4600   -9.7096 C.3      1 ZINC000164528615    0.0900
20     C20    -0.9167    0.2622  -10.0367 C.2      1 ZINC000164528615   -0.0900
21     C21    -0.2473   -0.7515   -9.5440 C.2      1 ZINC000164528615   -0.2100
22     C22     1.2077   -0.8974   -9.8937 C.3      1 ZINC000164528615    0.4100
23     F23     1.3545   -0.8131  -11.2824 F        1 ZINC000164528615   -0.1800
24     F24     1.9280    0.1415   -9.2945 F        1 ZINC000164528615   -0.1700
25     C25     1.7601   -2.2118   -9.4209 C.ar     1 ZINC000164528615    0.0400
26     C26     2.0322   -2.4158   -8.0575 C.ar     1 ZINC000164528615    0.3300
27     N27     2.6577   -3.5042   -7.6572 N.ar     1 ZINC000164528615   -0.4600
28     C28     2.9880   -4.4437   -8.5512 C.ar     1 ZINC000164528615    0.1300
29     C29     3.7664   -5.5569   -8.1895 C.ar     1 ZINC000164528615   -0.0900
30     C30     4.0111   -6.5348   -9.1050 C.ar     1 ZINC000164528615   -0.0800
31     C31     3.5059   -6.4471  -10.4005 C.ar     1 ZINC000164528615   -0.1100
32     C32     2.7853   -5.3631  -10.7979 C.ar     1 ZINC000164528615   -0.0700
33     C33     2.5603   -4.3095   -9.8961 C.ar     1 ZINC000164528615    0.0500
34     N34     1.9853   -3.1685  -10.2931 N.ar     1 ZINC000164528615   -0.3600
35     O35     1.6200   -1.5004   -7.1498 O.3      1 ZINC000164528615   -0.2900
36     C36     2.5366   -1.0849   -6.1386 C.3      1 ZINC000164528615    0.1000
37     H37     3.5565   -1.0906   -6.5137 H        1 ZINC000164528615    0.1000
38     C38     2.4174   -1.9958   -4.9045 C.3      1 ZINC000164528615   -0.1400
39     C39     1.8271   -1.1245   -3.7864 C.3      1 ZINC000164528615    0.1200
40     H40     0.9436   -1.6078   -3.3694 H        1 ZINC000164528615    0.1100
41     C41     2.8548   -0.9185   -2.7036 C.2      1 ZINC000164528615    0.5000
42     O42     3.1975    0.2042   -2.3985 O.2      1 ZINC000164528615   -0.4700
43     N43     3.3931   -1.9818   -2.0743 N.am     1 ZINC000164528615   -0.6900
44     C44     4.1749   -1.7901   -0.8503 C.3      1 ZINC000164528615    0.1600
45     C45     3.8052   -0.5845   -0.0251 C.2      1 ZINC000164528615    0.5700
46     O46     4.5055    0.4054   -0.0502 O.2      1 ZINC000164528615   -0.5800
47     N47     2.6964   -0.6063    0.7407 N.pl3    1 ZINC000164528615   -1.1200
48     S48     2.4550    0.5693    1.8818 S.o2     1 ZINC000164528615    2.5800
49     O49     3.1414    0.0895    3.0299 O.2      1 ZINC000164528615   -1.0100
50     O50     2.8558    1.7707    1.2375 O.2      1 ZINC000164528615   -1.0000
51     C51     0.6630    0.5653    2.1637 C.3      1 ZINC000164528615   -0.6100
52     C52    -0.1971    0.2526    0.9376 C.3      1 ZINC000164528615   -0.0800
53     C53     0.1627    0.0717    3.5227 C.3      1 ZINC000164528615   -0.1300
54     C54     0.1058    1.5622    3.1819 C.3      1 ZINC000164528615   -0.1500
55     C55     5.6485   -2.2004   -0.8817 C.3      1 ZINC000164528615   -0.1600
56     C56     4.6362   -3.0431   -0.1032 C.3      1 ZINC000164528615   -0.2100
57     H57     4.3580   -4.0100   -0.5224 H        1 ZINC000164528615    0.1300
58     C58     4.6878   -2.9763    1.4245 C.3      1 ZINC000164528615    0.2900
59     F59     5.1284   -4.2041    1.9303 F        1 ZINC000164528615   -0.2100
60     F60     5.5718   -1.9658    1.8175 F        1 ZINC000164528615   -0.1900
61     N61     1.4564    0.1682   -4.3711 N.am     1 ZINC000164528615   -0.5900
62     C62     2.1595    0.3258   -5.6507 C.3      1 ZINC000164528615    0.1000
63     C63     0.6109    1.0629   -3.8296 C.2      1 ZINC000164528615    0.5400
64     O64     0.0930    0.8345   -2.7570 O.2      1 ZINC000164528615   -0.5000
65     H65     2.2080    2.5250   -2.7272 H        1 ZINC000164528615    0.0800
66     H66     2.6369    3.7835   -3.9105 H        1 ZINC000164528615    0.0500
67     H67     2.0674    4.2442   -2.2883 H        1 ZINC000164528615    0.0700
68     H68    -0.8984    4.3924   -2.2306 H        1 ZINC000164528615    0.0500
69     H69    -1.2195    2.6928   -2.6508 H        1 ZINC000164528615    0.0600
70     H70     0.1080    3.0987   -1.5366 H        1 ZINC000164528615    0.0700
71     H71     0.9388    4.9192   -5.2007 H        1 ZINC000164528615    0.0600
72     H72    -0.7734    4.8484   -4.7194 H        1 ZINC000164528615    0.0500
73     H73     0.4087    5.6827   -3.6827 H        1 ZINC000164528615    0.0600
74     H74    -1.8130    1.9560   -4.4414 H        1 ZINC000164528615    0.4200
75     H75    -4.1366    4.7396   -6.9406 H        1 ZINC000164528615    0.0800
76     H76    -3.1179    5.5317   -8.1741 H        1 ZINC000164528615    0.0800
77     H77    -5.8013    4.6372   -8.4856 H        1 ZINC000164528615    0.0700
78     H78    -4.7094    5.2229   -9.7672 H        1 ZINC000164528615    0.0700
79     H79    -5.6790    2.5365   -9.3336 H        1 ZINC000164528615    0.0800
80     H80    -4.5994    3.1259  -10.6261 H        1 ZINC000164528615    0.0800
81     H81    -2.5586    0.1686   -8.6758 H        1 ZINC000164528615    0.0700
82     H82    -2.9838   -0.1473  -10.3780 H        1 ZINC000164528615    0.0900
83     H83    -0.4161    0.9682  -10.6867 H        1 ZINC000164528615    0.1300
84     H84    -0.7373   -1.4630   -8.8999 H        1 ZINC000164528615    0.1400
85     H85     4.1681   -5.6365   -7.1901 H        1 ZINC000164528615    0.1500
86     H86     4.6060   -7.3909   -8.8228 H        1 ZINC000164528615    0.1400
87     H87     3.6890   -7.2502  -11.0991 H        1 ZINC000164528615    0.1400
88     H88     2.3886   -5.3131  -11.8012 H        1 ZINC000164528615    0.1400
89     H89     1.7525   -2.8326   -5.1186 H        1 ZINC000164528615    0.1000
90     H90     3.4012   -2.3638   -4.6134 H        1 ZINC000164528615    0.1000
91     H91     3.2629   -2.8741   -2.4319 H        1 ZINC000164528615    0.3900
92     H92     0.4200   -0.2153    0.1706 H        1 ZINC000164528615    0.0900
93     H93    -1.0010   -0.4266    1.2214 H        1 ZINC000164528615    0.0500
94     H94    -0.6232    1.1769    0.5474 H        1 ZINC000164528615    0.0500
95     H95    -0.7794   -0.4761    3.5435 H        1 ZINC000164528615    0.1000
96     H96     0.9104   -0.2507    4.2474 H        1 ZINC000164528615    0.1100
97     H97     0.8160    2.2203    3.6824 H        1 ZINC000164528615    0.0900
98     H98    -0.8737    1.9949    2.9785 H        1 ZINC000164528615    0.1000
99     H99     6.0363   -2.6130   -1.8131 H        1 ZINC000164528615    0.1000
100    H100    6.3510   -1.5982   -0.3055 H        1 ZINC000164528615    0.1100
101    H101    3.6925   -2.7596    1.8125 H        1 ZINC000164528615    0.1300
102    H102    3.0606    0.9224   -5.5080 H        1 ZINC000164528615    0.1000
103    H103    1.5048    0.8071   -6.3772 H        1 ZINC000164528615    0.1000
@<TRIPOS>BOND
1     1     2     1
2     1     65    1
3     1     66    1
4     1     67    1
5     2     3     1
6     2     4     1
7     2     5     1
8     3     68    1
9     3     69    1
10    3     70    1
11    4     71    1
12    4     72    1
13    4     73    1
14    5     6     1
15    5     63    1
16    5     7     1
17    7     8     am
18    7     74    1
19    8     9     2
20    8     10    1
21    10    11    1
22    11    12    1
23    11    16    1
24    11    13    1
25    13    14    1
26    13    75    1
27    13    76    1
28    14    15    1
29    14    77    1
30    14    78    1
31    15    16    1
32    15    79    1
33    15    80    1
34    16    17    1
35    16    18    1
36    18    19    1
37    19    20    1
38    19    81    1
39    19    82    1
40    20    21    2
41    20    83    1
42    21    22    1
43    21    84    1
44    22    23    1
45    22    24    1
46    22    25    1
47    25    34    ar
48    25    26    ar
49    26    27    ar
50    26    35    1
51    27    28    ar
52    28    33    ar
53    28    29    ar
54    29    30    ar
55    29    85    1
56    30    31    ar
57    30    86    1
58    31    32    ar
59    31    87    1
60    32    33    ar
61    32    88    1
62    33    34    ar
63    35    36    1
64    36    37    1
65    36    62    1
66    36    38    1
67    38    39    1
68    38    89    1
69    38    90    1
70    39    40    1
71    39    41    1
72    39    61    1
73    41    42    2
74    41    43    am
75    43    44    1
76    43    91    1
77    44    56    1
78    44    45    1
79    44    55    1
80    45    46    2
81    45    47    1
82    47    48    1
83    48    49    2
84    48    50    2
85    48    51    1
86    51    54    1
87    51    52    1
88    51    53    1
89    52    92    1
90    52    93    1
91    52    94    1
92    53    54    1
93    53    95    1
94    53    96    1
95    54    97    1
96    54    98    1
97    55    56    1
98    55    99    1
99    55    100   1
100   56    57    1
101   56    58    1
102   58    59    1
103   58    60    1
104   58    101   1
105   61    62    1
106   61    63    am
107   62    102   1
108   62    103   1
109   63    64    2
@<TRIPOS>SUBSTRUCTURE
1   ZINC000164528615 1     RESIDUE    1   A     ZIN   1
