@<TRIPOS>MOLECULE
ZINC000005764759
52    57    1     0     0
SMALL
USER_CHARGES
@<TRIPOS>ATOM
1      C1      0.0977    1.3009   -0.4088 C.3      1 ZINC000005764759   -0.0600
2      N2      0.0326   -0.1242   -0.0582 N.4      1 ZINC000005764759   -0.2500
3      C3     -1.3705   -0.5060    0.1506 C.3      1 ZINC000005764759   -0.0100
4      C4     -2.1964   -0.1021   -1.0724 C.3      1 ZINC000005764759   -0.2100
5      C5     -2.8404   -1.2226   -1.8914 C.3      1 ZINC000005764759   -0.1700
6      C6     -3.7088   -0.3244   -1.0082 C.3      1 ZINC000005764759   -0.1500
7      C7      0.5876   -0.9170   -1.1596 C.3      1 ZINC000005764759   -0.0100
8      C8      0.4976   -2.4118   -0.8282 C.3      1 ZINC000005764759   -0.1200
9      C9      1.2576   -2.6593    0.4733 C.3      1 ZINC000005764759   -0.0300
10     C10     2.6831   -2.1880    0.3233 C.ar     1 ZINC000005764759   -0.1900
11     C11     3.1554   -0.9154    0.5479 C.ar     1 ZINC000005764759   -0.0600
12     C12     4.5086   -0.7265    0.3274 C.ar     1 ZINC000005764759   -0.1100
13     C13     5.3115   -1.7942   -0.0379 C.ar     1 ZINC000005764759   -0.1000
14     C14     4.8332   -3.0947   -0.1837 C.ar     1 ZINC000005764759    0.1100
15     O15     5.6594   -4.1226   -0.5154 O.3      1 ZINC000005764759   -0.4800
16     C16     3.4643   -3.2957    0.0267 C.ar     1 ZINC000005764759    0.1000
17     O17     2.7100   -4.4157    0.0334 O.3      1 ZINC000005764759   -0.2600
18     C18     1.4647   -4.1430    0.7435 C.3      1 ZINC000005764759    0.0600
19     H19     0.6415   -4.7373    0.3471 H        1 ZINC000005764759    0.1600
20     C20     1.7042   -4.4445    2.1935 C.2      1 ZINC000005764759    0.3400
21     O21     2.3136   -5.4471    2.4794 O.2      1 ZINC000005764759   -0.4100
22     C22     1.2233   -3.5602    3.3043 C.3      1 ZINC000005764759   -0.1600
23     C23     1.4150   -2.0909    2.9223 C.3      1 ZINC000005764759   -0.1300
24     C24     0.6576   -1.8203    1.5902 C.3      1 ZINC000005764759    0.1400
25     O25    -0.7229   -2.1538    1.7485 O.3      1 ZINC000005764759   -0.5400
26     C26     0.7832   -0.3503    1.1817 C.3      1 ZINC000005764759    0.0200
27     H27     0.3184    0.2515    1.9626 H        1 ZINC000005764759    0.1400
28     C28     2.2146    0.1376    1.0372 C.3      1 ZINC000005764759   -0.0900
29     H29     1.1402    1.6032   -0.5084 H        1 ZINC000005764759    0.1200
30     H30    -0.4206    1.4668   -1.3532 H        1 ZINC000005764759    0.1300
31     H31    -0.3781    1.8900    0.3752 H        1 ZINC000005764759    0.1300
32     H32    -1.4362   -1.5846    0.2933 H        1 ZINC000005764759    0.1800
33     H33    -1.7575    0.0016    1.0341 H        1 ZINC000005764759    0.1200
34     H34    -1.8390    0.7748   -1.6123 H        1 ZINC000005764759    0.1200
35     H35    -2.9066   -1.0831   -2.9704 H        1 ZINC000005764759    0.1100
36     H36    -2.6756   -2.2475   -1.5589 H        1 ZINC000005764759    0.1000
37     H37    -4.1154   -0.7584   -0.0948 H        1 ZINC000005764759    0.1100
38     H38    -4.3464    0.4061   -1.5062 H        1 ZINC000005764759    0.1100
39     H39     0.0248   -0.7140   -2.0708 H        1 ZINC000005764759    0.1400
40     H40     1.6314   -0.6426   -1.3126 H        1 ZINC000005764759    0.1300
41     H41    -0.5466   -2.6987   -0.7044 H        1 ZINC000005764759    0.1100
42     H42     0.9466   -2.9944   -1.6326 H        1 ZINC000005764759    0.1200
43     H43     4.9399    0.2572    0.4404 H        1 ZINC000005764759    0.1400
44     H44     6.3603   -1.6098   -0.2184 H        1 ZINC000005764759    0.1500
45     H45     6.0524   -4.5725    0.2450 H        1 ZINC000005764759    0.4000
46     H46     0.1660   -3.7516    3.4873 H        1 ZINC000005764759    0.1200
47     H47     1.7906   -3.7757    4.2098 H        1 ZINC000005764759    0.1100
48     H48     1.0121   -1.4529    3.7088 H        1 ZINC000005764759    0.1000
49     H49     2.4765   -1.8835    2.7876 H        1 ZINC000005764759    0.1000
50     H50    -1.1728   -1.6485    2.4394 H        1 ZINC000005764759    0.4000
51     H51     2.5621    0.4929    2.0073 H        1 ZINC000005764759    0.1300
52     H52     2.2300    0.9725    0.3366 H        1 ZINC000005764759    0.1100
@<TRIPOS>BOND
1     1     2     1
2     1     29    1
3     1     30    1
4     1     31    1
5     2     26    1
6     2     3     1
7     2     7     1
8     3     4     1
9     3     32    1
10    3     33    1
11    4     6     1
12    4     5     1
13    4     34    1
14    5     6     1
15    5     35    1
16    5     36    1
17    6     37    1
18    6     38    1
19    7     8     1
20    7     39    1
21    7     40    1
22    8     9     1
23    8     41    1
24    8     42    1
25    9     18    1
26    9     24    1
27    9     10    1
28    10    16    ar
29    10    11    ar
30    11    28    1
31    11    12    ar
32    12    13    ar
33    12    43    1
34    13    14    ar
35    13    44    1
36    14    15    1
37    14    16    ar
38    15    45    1
39    16    17    1
40    17    18    1
41    18    19    1
42    18    20    1
43    20    21    2
44    20    22    1
45    22    23    1
46    22    46    1
47    22    47    1
48    23    24    1
49    23    48    1
50    23    49    1
51    24    25    1
52    24    26    1
53    25    50    1
54    26    27    1
55    26    28    1
56    28    51    1
57    28    52    1
@<TRIPOS>SUBSTRUCTURE
1   ZINC000005764759 1     RESIDUE    1   A     ZIN   1
