@<TRIPOS>MOLECULE
ZINC000000538483
49    52    1     0     0
SMALL
USER_CHARGES
@<TRIPOS>ATOM
1      O1      0.0021   -0.0041    0.0020 O.2      1 ZINC000000538483   -0.5400
2      C2     -0.0145    1.2147    0.0087 C.2      1 ZINC000000538483    0.6500
3      N3     -1.1149    1.9933    0.0293 N.am     1 ZINC000000538483   -0.4800
4      C4     -2.4546    1.6859    0.0473 C.2      1 ZINC000000538483    0.1200
5      C5     -3.3817    2.6595    0.0655 C.2      1 ZINC000000538483   -0.1700
6      C6     -2.9978    4.0163    0.0669 C.2      1 ZINC000000538483   -0.0300
7      C7     -1.6833    4.3455    0.0498 C.2      1 ZINC000000538483   -0.1300
8      C8     -0.7094    3.3151    0.0302 C.2      1 ZINC000000538483    0.3100
9      N9      0.6027    3.3466    0.0109 N.2      1 ZINC000000538483   -0.3000
10     N10     1.0650    2.0234    0.0028 N.am     1 ZINC000000538483   -0.4400
11     C11     2.4662    1.5964   -0.0179 C.3      1 ZINC000000538483    0.1700
12     C12     2.9331    1.4487   -1.4674 C.3      1 ZINC000000538483   -0.1700
13     C13     4.3965    1.0027   -1.4890 C.3      1 ZINC000000538483    0.0000
14     N14     4.8447    0.8608   -2.8808 N.4      1 ZINC000000538483   -0.3900
15     H15     4.2253    0.2330   -3.3710 H        1 ZINC000000538483    0.4200
16     C16     6.2093    0.3180   -2.9025 C.3      1 ZINC000000538483    0.0000
17     C17     6.6697    0.1524   -4.3524 C.3      1 ZINC000000538483    0.0200
18     N18     6.6323    1.4575   -5.0273 N.3      1 ZINC000000538483   -0.4900
19     C19     7.0980    1.3556   -6.3402 C.ar     1 ZINC000000538483    0.1000
20     C20     7.5111    0.1267   -6.8386 C.ar     1 ZINC000000538483   -0.1600
21     C21     7.9708    0.0286   -8.1375 C.ar     1 ZINC000000538483   -0.0800
22     C22     8.0206    1.1519   -8.9418 C.ar     1 ZINC000000538483   -0.1200
23     C23     7.6101    2.3785   -8.4486 C.ar     1 ZINC000000538483   -0.0100
24     Cl24    7.6749    3.7865   -9.4620 Cl       1 ZINC000000538483   -0.0500
25     C25     7.1435    2.4819   -7.1519 C.ar     1 ZINC000000538483   -0.1200
26     C26     5.2770    2.0250   -4.9917 C.3      1 ZINC000000538483    0.0300
27     C27     4.8285    2.1751   -3.5364 C.3      1 ZINC000000538483   -0.0100
28     H28    -2.7657    0.6517    0.0465 H        1 ZINC000000538483    0.1700
29     H29    -4.4300    2.4001    0.0787 H        1 ZINC000000538483    0.1600
30     H30    -3.7497    4.7914    0.0811 H        1 ZINC000000538483    0.1600
31     H31    -1.3806    5.3823    0.0503 H        1 ZINC000000538483    0.1600
32     H32     3.0807    2.3414    0.4875 H        1 ZINC000000538483    0.1100
33     H33     2.5618    0.6388    0.4939 H        1 ZINC000000538483    0.1100
34     H34     2.3187    0.7036   -1.9729 H        1 ZINC000000538483    0.0900
35     H35     2.8375    2.4063   -1.9793 H        1 ZINC000000538483    0.1000
36     H36     5.0109    1.7477   -0.9836 H        1 ZINC000000538483    0.1400
37     H37     4.4920    0.0451   -0.9772 H        1 ZINC000000538483    0.1400
38     H38     6.8809    1.0023   -2.3840 H        1 ZINC000000538483    0.1400
39     H39     6.2227   -0.6513   -2.4041 H        1 ZINC000000538483    0.1400
40     H40     7.6878   -0.2364   -4.3686 H        1 ZINC000000538483    0.1300
41     H41     6.0064   -0.5425   -4.8675 H        1 ZINC000000538483    0.0700
42     H42     7.4734   -0.7514   -6.2110 H        1 ZINC000000538483    0.1300
43     H43     8.2921   -0.9269   -8.5252 H        1 ZINC000000538483    0.1400
44     H44     8.3807    1.0724   -9.9568 H        1 ZINC000000538483    0.1400
45     H45     6.8233    3.4389   -6.7672 H        1 ZINC000000538483    0.1400
46     H46     5.2792    3.0023   -5.4743 H        1 ZINC000000538483    0.1300
47     H47     4.5908    1.3609   -5.5173 H        1 ZINC000000538483    0.0700
48     H48     3.8180    2.5826   -3.5079 H        1 ZINC000000538483    0.1400
49     H49     5.5072    2.8500   -3.0148 H        1 ZINC000000538483    0.1400
@<TRIPOS>BOND
1     1     2     2
2     2     10    am
3     2     3     am
4     3     8     1
5     3     4     1
6     4     5     2
7     4     28    1
8     5     6     1
9     5     29    1
10    6     7     2
11    6     30    1
12    7     8     1
13    7     31    1
14    8     9     2
15    9     10    1
16    10    11    1
17    11    12    1
18    11    32    1
19    11    33    1
20    12    13    1
21    12    34    1
22    12    35    1
23    13    14    1
24    13    36    1
25    13    37    1
26    14    15    1
27    14    27    1
28    14    16    1
29    16    17    1
30    16    38    1
31    16    39    1
32    17    18    1
33    17    40    1
34    17    41    1
35    18    19    1
36    18    26    1
37    19    25    ar
38    19    20    ar
39    20    21    ar
40    20    42    1
41    21    22    ar
42    21    43    1
43    22    23    ar
44    22    44    1
45    23    24    1
46    23    25    ar
47    25    45    1
48    26    27    1
49    26    46    1
50    26    47    1
51    27    48    1
52    27    49    1
@<TRIPOS>SUBSTRUCTURE
1   ZINC000000538483 1     RESIDUE    1   A     ZIN   1
