@<TRIPOS>MOLECULE
ZINC000001530764
42    44    1     0     0
SMALL
USER_CHARGES
@<TRIPOS>ATOM
1      C1     -0.0178    1.4648    0.0101 C.3      1 ZINC000001530764   -0.0500
2      N2      0.0021   -0.0041    0.0020 N.4      1 ZINC000001530764   -0.5100
3      H3      0.4901   -0.3383    0.8195 H        1 ZINC000001530764    0.4300
4      H4     -0.9445   -0.3533    0.0092 H        1 ZINC000001530764    0.4300
5      C5      0.6897   -0.4778   -1.2066 C.3      1 ZINC000001530764   -0.0100
6      C6      0.7104   -2.0077   -1.2150 C.3      1 ZINC000001530764   -0.1500
7      C7      1.4265   -2.5011   -2.4738 C.3      1 ZINC000001530764   -0.1200
8      C8      1.4473   -4.0309   -2.4822 C.3      1 ZINC000001530764    0.0000
9      C9      0.0389   -4.5445   -2.5670 C.ar     1 ZINC000001530764   -0.0700
10     C10    -0.4225   -5.4032   -1.5861 C.ar     1 ZINC000001530764   -0.1200
11     C11    -1.7123   -5.8982   -1.6395 C.ar     1 ZINC000001530764   -0.1100
12     C12    -2.5524   -5.5385   -2.6785 C.ar     1 ZINC000001530764   -0.1200
13     C13    -2.1072   -4.6820   -3.6612 C.ar     1 ZINC000001530764   -0.1000
14     C14    -0.8023   -4.1714   -3.6118 C.ar     1 ZINC000001530764   -0.0500
15     C15    -0.3627   -3.2466   -4.6588 C.2      1 ZINC000001530764   -0.1100
16     C16     0.8169   -3.2267   -5.2370 C.2      1 ZINC000001530764   -0.0900
17     C17     1.9378   -4.1262   -4.9546 C.ar     1 ZINC000001530764   -0.0600
18     C18     2.7068   -4.6085   -6.0232 C.ar     1 ZINC000001530764   -0.1000
19     C19     3.7706   -5.4505   -5.7848 C.ar     1 ZINC000001530764   -0.1100
20     C20     4.0838   -5.8221   -4.4893 C.ar     1 ZINC000001530764   -0.1100
21     C21     3.3294   -5.3522   -3.4302 C.ar     1 ZINC000001530764   -0.1200
22     C22     2.2559   -4.5085   -3.6538 C.ar     1 ZINC000001530764   -0.0700
23     H23     1.0047    1.8421    0.0024 H        1 ZINC000001530764    0.1200
24     H24    -0.5450    1.8259   -0.8730 H        1 ZINC000001530764    0.1200
25     H25    -0.5280    1.8163    0.9069 H        1 ZINC000001530764    0.1300
26     H26     0.1625   -0.1167   -2.0897 H        1 ZINC000001530764    0.1300
27     H27     1.7123   -0.1005   -1.2143 H        1 ZINC000001530764    0.1300
28     H28     1.2376   -2.3687   -0.3320 H        1 ZINC000001530764    0.0900
29     H29    -0.3122   -2.3849   -1.2073 H        1 ZINC000001530764    0.0900
30     H30     0.8994   -2.1400   -3.3569 H        1 ZINC000001530764    0.0900
31     H31     2.4491   -2.1238   -2.4816 H        1 ZINC000001530764    0.0800
32     H32     1.9048   -4.3890   -1.5600 H        1 ZINC000001530764    0.0900
33     H33     0.2286   -5.6886   -0.7731 H        1 ZINC000001530764    0.1200
34     H34    -2.0649   -6.5674   -0.8687 H        1 ZINC000001530764    0.1300
35     H35    -3.5581   -5.9301   -2.7192 H        1 ZINC000001530764    0.1300
36     H36    -2.7647   -4.4031   -4.4713 H        1 ZINC000001530764    0.1300
37     H37    -1.0788   -2.5085   -4.9884 H        1 ZINC000001530764    0.1200
38     H38     0.9754   -2.4737   -5.9948 H        1 ZINC000001530764    0.1200
39     H39     2.4643   -4.3195   -7.0352 H        1 ZINC000001530764    0.1300
40     H40     4.3607   -5.8213   -6.6099 H        1 ZINC000001530764    0.1300
41     H41     4.9198   -6.4805   -4.3049 H        1 ZINC000001530764    0.1300
42     H42     3.5795   -5.6456   -2.4214 H        1 ZINC000001530764    0.1200
@<TRIPOS>BOND
1     1     2     1
2     1     23    1
3     1     24    1
4     1     25    1
5     2     3     1
6     2     4     1
7     2     5     1
8     5     6     1
9     5     26    1
10    5     27    1
11    6     7     1
12    6     28    1
13    6     29    1
14    7     8     1
15    7     30    1
16    7     31    1
17    8     22    1
18    8     9     1
19    8     32    1
20    9     14    ar
21    9     10    ar
22    10    11    ar
23    10    33    1
24    11    12    ar
25    11    34    1
26    12    13    ar
27    12    35    1
28    13    14    ar
29    13    36    1
30    14    15    1
31    15    16    2
32    15    37    1
33    16    17    1
34    16    38    1
35    17    22    ar
36    17    18    ar
37    18    19    ar
38    18    39    1
39    19    20    ar
40    19    40    1
41    20    21    ar
42    20    41    1
43    21    22    ar
44    21    42    1
@<TRIPOS>SUBSTRUCTURE
1   ZINC000001530764 1     RESIDUE    1   A     ZIN   1
