@<TRIPOS>MOLECULE
ZINC000001883067
18    18    1     0     0
SMALL
USER_CHARGES
@<TRIPOS>ATOM
1      O1      0.0021   -0.0041    0.0020 O.2      1 ZINC000001883067   -0.1800
2      N2     -0.0144    1.2138    0.0087 N.pl3    1 ZINC000001883067    0.0600
3      O3      1.0320    1.8371    0.0021 O.2      1 ZINC000001883067   -0.1800
4      C4     -1.3063    1.9364    0.0188 C.ar     1 ZINC000001883067   -0.1700
5      C5     -1.3237    3.3190    0.0206 C.ar     1 ZINC000001883067    0.0900
6      C6     -2.5280    3.9957    0.0295 C.ar     1 ZINC000001883067   -0.1600
7      N7     -2.5459    5.4758    0.0310 N.pl3    1 ZINC000001883067    0.0600
8      O8     -1.4986    6.0975    0.0243 O.2      1 ZINC000001883067   -0.2100
9      O9     -3.6080    6.0719    0.0388 O.2      1 ZINC000001883067   -0.1200
10     C10    -3.7206    3.2869    0.0366 C.ar     1 ZINC000001883067    0.3400
11     O11    -4.9066    3.9504    0.0450 O.3      1 ZINC000001883067   -0.5200
12     C12    -3.7004    1.8997    0.0348 C.ar     1 ZINC000001883067   -0.1600
13     N13    -4.9710    1.1404    0.0424 N.pl3    1 ZINC000001883067    0.0600
14     O14    -4.9526   -0.0774    0.0408 O.2      1 ZINC000001883067   -0.2100
15     O15    -6.0348    1.7335    0.0503 O.2      1 ZINC000001883067   -0.1200
16     C16    -2.4935    1.2277    0.0205 C.ar     1 ZINC000001883067    0.0900
17     H17    -0.3950    3.8703    0.0154 H        1 ZINC000001883067    0.1700
18     H18    -2.4772    0.1478    0.0191 H        1 ZINC000001883067    0.1700
@<TRIPOS>BOND
1     1     2     2
2     2     3     2
3     2     4     1
4     4     16    ar
5     4     5     ar
6     5     6     ar
7     5     17    1
8     6     7     1
9     6     10    ar
10    7     8     2
11    7     9     2
12    10    11    1
13    10    12    ar
14    12    13    1
15    12    16    ar
16    13    14    2
17    13    15    2
18    16    18    1
@<TRIPOS>SUBSTRUCTURE
1   ZINC000001883067 1     RESIDUE    1   A     ZIN   1
