@<TRIPOS>MOLECULE
ZINC000049637509
87    91    1     0     0
SMALL
USER_CHARGES
@<TRIPOS>ATOM
1      C1     10.2055   -5.8306   -3.3761 C.3      1 ZINC000049637509   -0.0500
2      N2      8.8325   -6.3241   -3.2051 N.4      1 ZINC000049637509   -0.5000
3      H3      8.8563   -7.2806   -2.8847 H        1 ZINC000049637509    0.4400
4      H4      8.3523   -5.7536   -2.5254 H        1 ZINC000049637509    0.4400
5      C5      8.1239   -6.2556   -4.4901 C.3      1 ZINC000049637509    0.0000
6      C6      6.7154   -6.7618   -4.3147 C.2      1 ZINC000049637509    0.4600
7      O7      6.3403   -7.1408   -3.2304 O.2      1 ZINC000049637509   -0.4900
8      O8      5.8775   -6.7917   -5.3629 O.3      1 ZINC000049637509   -0.3300
9      C9      4.5360   -7.2916   -5.1205 C.3      1 ZINC000049637509    0.1300
10     C10     3.7454   -7.2508   -6.4028 C.ar     1 ZINC000049637509   -0.1400
11     C11     4.2910   -6.6934   -7.5455 C.ar     1 ZINC000049637509   -0.0500
12     C12     3.5269   -6.6777   -8.7046 C.ar     1 ZINC000049637509   -0.1500
13     C13     2.2551   -7.2145   -8.6832 C.ar     1 ZINC000049637509    0.1300
14     N14     1.7609   -7.7395   -7.5782 N.ar     1 ZINC000049637509   -0.4700
15     C15     2.4598   -7.7781   -6.4550 C.ar     1 ZINC000049637509    0.3600
16     N16     1.8978   -8.3424   -5.3109 N.am     1 ZINC000049637509   -0.5400
17     C17     1.0537   -7.5294   -4.4319 C.3      1 ZINC000049637509    0.0800
18     C18     2.1311   -9.6361   -5.0134 C.2      1 ZINC000049637509    0.6700
19     O19     2.8312  -10.3105   -5.7424 O.2      1 ZINC000049637509   -0.5400
20     O20     1.5883  -10.1812   -3.9084 O.3      1 ZINC000049637509   -0.3600
21     C21     1.8822  -11.5796   -3.6507 C.3      1 ZINC000049637509    0.3200
22     H22     2.0358  -12.0989   -4.5966 H        1 ZINC000049637509    0.1500
23     C23     3.1487  -11.6860   -2.7989 C.3      1 ZINC000049637509   -0.1800
24     N24     0.7595  -12.1906   -2.9348 N.pl3    1 ZINC000049637509   -0.4400
25     C25     0.3541  -13.4254   -3.0856 C.cat    1 ZINC000049637509    0.3400
26     N26    -0.6932  -13.6235   -2.2665 N.pl3    1 ZINC000049637509   -0.3000
27     C27    -1.4614  -14.8607   -2.1070 C.3      1 ZINC000049637509    0.0900
28     C28    -1.4734  -15.2670   -0.6319 C.3      1 ZINC000049637509    0.1800
29     O29    -2.1790  -14.2833    0.1273 O.3      1 ZINC000049637509   -0.5100
30     C30    -0.0570  -15.3698   -0.1277 C.ar     1 ZINC000049637509   -0.1300
31     C31     0.8898  -16.0570   -0.8627 C.ar     1 ZINC000049637509   -0.1400
32     C32     2.1912  -16.1519   -0.3992 C.ar     1 ZINC000049637509    0.0900
33     F33     3.1169  -16.8242   -1.1177 F        1 ZINC000049637509   -0.1200
34     C34     2.5438  -15.5574    0.8002 C.ar     1 ZINC000049637509   -0.1000
35     C35     1.5968  -14.8696    1.5353 C.ar     1 ZINC000049637509   -0.1300
36     C36     0.2970  -14.7707    1.0695 C.ar     1 ZINC000049637509    0.1500
37     F37    -0.6287  -14.0984    1.7881 F        1 ZINC000049637509   -0.1000
38     C38    -2.1678  -16.6220   -0.4817 C.3      1 ZINC000049637509   -0.0300
39     H39    -3.1821  -16.5560   -0.8754 H        1 ZINC000049637509    0.1200
40     C40    -1.3873  -17.6840   -1.2587 C.3      1 ZINC000049637509   -0.1700
41     C41    -2.2184  -17.0017    0.9758 C.2      1 ZINC000049637509    0.0500
42     N42    -3.2996  -17.2179    1.6405 N.2      1 ZINC000049637509   -0.4400
43     C43    -3.1686  -17.5439    2.9189 C.2      1 ZINC000049637509    0.1100
44     C44    -4.3244  -17.8200    3.8035 C.ar     1 ZINC000049637509    0.0000
45     C45    -5.6158  -17.8503    3.2745 C.ar     1 ZINC000049637509   -0.0900
46     C46    -6.6864  -18.1058    4.0922 C.ar     1 ZINC000049637509   -0.0700
47     C47    -6.4842  -18.3361    5.4563 C.ar     1 ZINC000049637509   -0.0100
48     C48    -7.6014  -18.6035    6.3113 C.1      1 ZINC000049637509    0.2400
49     N49    -8.4876  -18.8156    6.9895 N.1      1 ZINC000049637509   -0.4000
50     C50    -5.1901  -18.3055    5.9850 C.ar     1 ZINC000049637509   -0.0700
51     C51    -4.1206  -18.0554    5.1642 C.ar     1 ZINC000049637509   -0.1000
52     C52    -1.8883  -17.6017    3.3428 C.2      1 ZINC000049637509   -0.2400
53     S53    -0.8481  -17.2127    1.9752 S.3      1 ZINC000049637509    0.1400
54     N54    -0.9048  -12.4088   -1.5941 N.2      1 ZINC000049637509   -0.2000
55     C55     0.0022  -11.5738   -2.0285 C.2      1 ZINC000049637509    0.2600
56     H56    10.7243   -6.4469   -4.1104 H        1 ZINC000049637509    0.1300
57     H57    10.1798   -4.7973   -3.7222 H        1 ZINC000049637509    0.1300
58     H58    10.7313   -5.8814   -2.4227 H        1 ZINC000049637509    0.1400
59     H59     8.0982   -5.2223   -4.8362 H        1 ZINC000049637509    0.1800
60     H60     8.6427   -6.8719   -5.2244 H        1 ZINC000049637509    0.1800
61     H61     4.5906   -8.3187   -4.7598 H        1 ZINC000049637509    0.0900
62     H62     4.0461   -6.6692   -4.3717 H        1 ZINC000049637509    0.1000
63     H63     5.2885   -6.2796   -7.5359 H        1 ZINC000049637509    0.1500
64     H64     3.9232   -6.2497   -9.6136 H        1 ZINC000049637509    0.1600
65     H65     1.6569   -7.2042   -9.5824 H        1 ZINC000049637509    0.1800
66     H66     0.0066   -7.6743   -4.6979 H        1 ZINC000049637509    0.0800
67     H67     1.2107   -7.8312   -3.3964 H        1 ZINC000049637509    0.0900
68     H68     1.3158   -6.4777   -4.5476 H        1 ZINC000049637509    0.0900
69     H69     3.3694  -12.7357   -2.6054 H        1 ZINC000049637509    0.1000
70     H70     3.9840  -11.2313   -3.3315 H        1 ZINC000049637509    0.1100
71     H71     2.9951  -11.1666   -1.8530 H        1 ZINC000049637509    0.0900
72     H72     0.7854  -14.1576   -3.7522 H        1 ZINC000049637509    0.2700
73     H73    -2.4841  -14.6999   -2.4479 H        1 ZINC000049637509    0.1400
74     H74    -1.0016  -15.6527   -2.6982 H        1 ZINC000049637509    0.1500
75     H75    -3.0997  -14.1636   -0.1432 H        1 ZINC000049637509    0.3900
76     H76     0.6148  -16.5204   -1.7987 H        1 ZINC000049637509    0.1500
77     H77     3.5588  -15.6314    1.1618 H        1 ZINC000049637509    0.1500
78     H78     1.8718  -14.4062    2.4712 H        1 ZINC000049637509    0.1500
79     H79    -1.9403  -18.6232   -1.2461 H        1 ZINC000049637509    0.0900
80     H80    -1.2533  -17.3551   -2.2892 H        1 ZINC000049637509    0.0700
81     H81    -0.4120  -17.8304   -0.7944 H        1 ZINC000049637509    0.0700
82     H82    -5.7718  -17.6720    2.2208 H        1 ZINC000049637509    0.1400
83     H83    -7.6855  -18.1288    3.6828 H        1 ZINC000049637509    0.1400
84     H84    -5.0326  -18.4832    7.0385 H        1 ZINC000049637509    0.1400
85     H85    -3.1210  -18.0317    5.5723 H        1 ZINC000049637509    0.1300
86     H86    -1.5598  -17.8468    4.3421 H        1 ZINC000049637509    0.1800
87     H87     0.1154  -10.5482   -1.7094 H        1 ZINC000049637509    0.2600
@<TRIPOS>BOND
1     1     2     1
2     1     56    1
3     1     57    1
4     1     58    1
5     2     3     1
6     2     4     1
7     2     5     1
8     5     6     1
9     5     59    1
10    5     60    1
11    6     7     2
12    6     8     1
13    8     9     1
14    9     10    1
15    9     61    1
16    9     62    1
17    10    15    ar
18    10    11    ar
19    11    12    ar
20    11    63    1
21    12    13    ar
22    12    64    1
23    13    14    ar
24    13    65    1
25    14    15    ar
26    15    16    1
27    16    17    1
28    16    18    am
29    17    66    1
30    17    67    1
31    17    68    1
32    18    19    2
33    18    20    1
34    20    21    1
35    21    22    1
36    21    23    1
37    21    24    1
38    23    69    1
39    23    70    1
40    23    71    1
41    24    55    1
42    24    25    ar
43    25    26    ar
44    25    72    1
45    26    27    1
46    26    54    1
47    27    28    1
48    27    73    1
49    27    74    1
50    28    29    1
51    28    30    1
52    28    38    1
53    29    75    1
54    30    36    ar
55    30    31    ar
56    31    32    ar
57    31    76    1
58    32    33    1
59    32    34    ar
60    34    35    ar
61    34    77    1
62    35    36    ar
63    35    78    1
64    36    37    1
65    38    39    1
66    38    40    1
67    38    41    1
68    40    79    1
69    40    80    1
70    40    81    1
71    41    53    1
72    41    42    2
73    42    43    1
74    43    44    1
75    43    52    2
76    44    51    ar
77    44    45    ar
78    45    46    ar
79    45    82    1
80    46    47    ar
81    46    83    1
82    47    48    1
83    47    50    ar
84    48    49    3
85    50    51    ar
86    50    84    1
87    51    85    1
88    52    53    1
89    52    86    1
90    54    55    2
91    55    87    1
@<TRIPOS>SUBSTRUCTURE
1   ZINC000049637509 1     RESIDUE    1   A     ZIN   1
