@<TRIPOS>MOLECULE
ZINC000100378061
76    83    1     0     0
SMALL
USER_CHARGES
@<TRIPOS>ATOM
1      C1     -0.0788    2.3524    0.3329 C.3      1 ZINC000100378061   -0.1600
2      C2      0.0579    0.8300    0.2649 C.3      1 ZINC000100378061    0.2800
3      C3      0.8030    0.3290    1.5037 C.3      1 ZINC000100378061   -0.1600
4      N4     -1.2741    0.2218    0.2170 N.am     1 ZINC000100378061   -0.7200
5      C5     -2.1447    0.4259    1.2254 C.2      1 ZINC000100378061    0.5400
6      O6     -1.8255    1.1130    2.1724 O.2      1 ZINC000100378061   -0.5200
7      C7     -3.5148   -0.1997    1.1761 C.3      1 ZINC000100378061   -0.1500
8      C8     -4.2902    0.1761    2.4402 C.3      1 ZINC000100378061   -0.1200
9      C9     -5.6998   -0.4053    2.3428 C.3      1 ZINC000100378061    0.1700
10     O10    -5.6230   -1.8224    2.1753 O.3      1 ZINC000100378061   -0.5400
11     C11    -6.4906   -0.0707    3.6112 C.3      1 ZINC000100378061    0.0600
12     H12    -5.9882   -0.5457    4.4538 H        1 ZINC000100378061    0.1000
13     C13    -6.5953    1.4162    3.9077 C.3      1 ZINC000100378061   -0.1100
14     C14    -6.6390    2.2667    2.6800 C.ar     1 ZINC000100378061   -0.0300
15     C15    -6.5488    1.6692    1.4441 C.ar     1 ZINC000100378061   -0.1700
16     C16    -6.4449    2.3353    0.2315 C.ar     1 ZINC000100378061    0.0900
17     C17    -6.5417    3.7310    0.2405 C.ar     1 ZINC000100378061    0.0900
18     O18    -6.4749    4.4555   -0.9084 O.3      1 ZINC000100378061   -0.4800
19     C19    -6.7103    4.3452    1.4800 C.ar     1 ZINC000100378061   -0.1000
20     C20    -6.7518    3.6461    2.6748 C.ar     1 ZINC000100378061   -0.1300
21     O21    -6.2137    1.4548   -0.7663 O.3      1 ZINC000100378061   -0.2700
22     C22    -5.7498    0.1975   -0.1883 C.3      1 ZINC000100378061    0.0700
23     H23    -6.0490   -0.6562   -0.7965 H        1 ZINC000100378061    0.1600
24     C24    -4.2431    0.2925   -0.0383 C.2      1 ZINC000100378061    0.3500
25     O25    -3.6034    0.7744   -0.9422 O.2      1 ZINC000100378061   -0.4100
26     C26    -6.4406    0.2077    1.1657 C.3      1 ZINC000100378061   -0.0300
27     C27    -7.8458   -0.3848    1.0910 C.3      1 ZINC000100378061   -0.0900
28     C28    -8.5745   -0.0789    2.4050 C.3      1 ZINC000100378061    0.0500
29     N29    -7.8363   -0.6492    3.5068 N.3      1 ZINC000100378061   -0.5100
30     C30    -8.5611   -0.4745    4.7726 C.3      1 ZINC000100378061    0.0800
31     C31    -7.7034   -0.9957    5.9275 C.3      1 ZINC000100378061   -0.1500
32     C32    -7.2521    0.0146    6.9841 C.3      1 ZINC000100378061   -0.1800
33     C33    -8.3325   -1.0147    7.3220 C.3      1 ZINC000100378061   -0.1700
34     C34     0.8286    0.4496   -0.9730 C.2      1 ZINC000100378061    0.1800
35     N35     2.0539    0.8069   -1.2670 N.2      1 ZINC000100378061   -0.4600
36     C36     2.3223    0.2343   -2.4622 C.2      1 ZINC000100378061    0.2200
37     C37     3.5911    0.3405   -3.2249 C.ar     1 ZINC000100378061   -0.0300
38     C38     4.6535    1.0836   -2.7146 C.ar     1 ZINC000100378061   -0.0700
39     C39     5.8313    1.1787   -3.4279 C.ar     1 ZINC000100378061   -0.1200
40     C40     5.9579    0.5383   -4.6473 C.ar     1 ZINC000100378061   -0.1000
41     C41     4.9062   -0.2004   -5.1588 C.ar     1 ZINC000100378061   -0.1200
42     C42     3.7261   -0.3072   -4.4510 C.ar     1 ZINC000100378061   -0.0800
43     N43     1.2548   -0.4305   -2.8202 N.2      1 ZINC000100378061   -0.3700
44     O44     0.3922   -0.3206   -1.9745 O.3      1 ZINC000100378061    0.0800
45     H45     0.9122    2.8049    0.3685 H        1 ZINC000100378061    0.0800
46     H46    -0.6096    2.7093   -0.5497 H        1 ZINC000100378061    0.0600
47     H47    -0.6362    2.6275    1.2282 H        1 ZINC000100378061    0.1000
48     H48     0.2456    0.6041    2.3990 H        1 ZINC000100378061    0.1000
49     H49     0.9004   -0.7556    1.4552 H        1 ZINC000100378061    0.0600
50     H50     1.7940    0.7815    1.5393 H        1 ZINC000100378061    0.0800
51     H51    -1.5294   -0.3277   -0.5405 H        1 ZINC000100378061    0.4100
52     H52    -3.4157   -1.2839    1.1236 H        1 ZINC000100378061    0.1500
53     H53    -3.7851   -0.2345    3.3144 H        1 ZINC000100378061    0.1000
54     H54    -4.3475    1.2613    2.5247 H        1 ZINC000100378061    0.0900
55     H55    -5.1760   -2.2805    2.9002 H        1 ZINC000100378061    0.3800
56     H56    -7.5010    1.5935    4.4877 H        1 ZINC000100378061    0.0900
57     H57    -5.7357    1.7138    4.5081 H        1 ZINC000100378061    0.0900
58     H58    -7.3324    4.6048   -1.3298 H        1 ZINC000100378061    0.3900
59     H59    -6.8138    5.4198    1.5103 H        1 ZINC000100378061    0.1400
60     H60    -6.8726    4.1794    3.6062 H        1 ZINC000100378061    0.1300
61     H61    -8.3882    0.0635    0.2586 H        1 ZINC000100378061    0.0700
62     H62    -7.7811   -1.4638    0.9508 H        1 ZINC000100378061    0.0900
63     H63    -8.6795    1.0001    2.5184 H        1 ZINC000100378061    0.0400
64     H64    -9.5629   -0.5381    2.3865 H        1 ZINC000100378061    0.0800
65     H65    -8.7737    0.5834    4.9265 H        1 ZINC000100378061    0.0400
66     H66    -9.4972   -1.0316    4.7351 H        1 ZINC000100378061    0.0800
67     H67    -7.0148   -1.8020    5.6750 H        1 ZINC000100378061    0.1100
68     H68    -6.2662   -0.1268    7.4270 H        1 ZINC000100378061    0.0900
69     H69    -7.5662    1.0505    6.8565 H        1 ZINC000100378061    0.0900
70     H70    -9.3574   -0.6559    7.4167 H        1 ZINC000100378061    0.0900
71     H71    -8.0574   -1.8332    7.9872 H        1 ZINC000100378061    0.1000
72     H72     4.5554    1.5846   -1.7629 H        1 ZINC000100378061    0.1400
73     H73     6.6554    1.7544   -3.0333 H        1 ZINC000100378061    0.1300
74     H74     6.8812    0.6155   -5.2023 H        1 ZINC000100378061    0.1300
75     H75     5.0101   -0.6979   -6.1117 H        1 ZINC000100378061    0.1300
76     H76     2.9057   -0.8845   -4.8511 H        1 ZINC000100378061    0.1300
@<TRIPOS>BOND
1     1     2     1
2     1     45    1
3     1     46    1
4     1     47    1
5     2     3     1
6     2     4     1
7     2     34    1
8     3     48    1
9     3     49    1
10    3     50    1
11    4     5     am
12    4     51    1
13    5     6     2
14    5     7     1
15    7     24    1
16    7     8     1
17    7     52    1
18    8     9     1
19    8     53    1
20    8     54    1
21    9     26    1
22    9     10    1
23    9     11    1
24    10    55    1
25    11    12    1
26    11    29    1
27    11    13    1
28    13    14    1
29    13    56    1
30    13    57    1
31    14    20    ar
32    14    15    ar
33    15    26    1
34    15    16    ar
35    16    17    ar
36    16    21    1
37    17    18    1
38    17    19    ar
39    18    58    1
40    19    20    ar
41    19    59    1
42    20    60    1
43    21    22    1
44    22    23    1
45    22    24    1
46    22    26    1
47    24    25    2
48    26    27    1
49    27    28    1
50    27    61    1
51    27    62    1
52    28    29    1
53    28    63    1
54    28    64    1
55    29    30    1
56    30    31    1
57    30    65    1
58    30    66    1
59    31    33    1
60    31    32    1
61    31    67    1
62    32    33    1
63    32    68    1
64    32    69    1
65    33    70    1
66    33    71    1
67    34    44    1
68    34    35    2
69    35    36    1
70    36    37    1
71    36    43    2
72    37    42    ar
73    37    38    ar
74    38    39    ar
75    38    72    1
76    39    40    ar
77    39    73    1
78    40    41    ar
79    40    74    1
80    41    42    ar
81    41    75    1
82    42    76    1
83    43    44    1
@<TRIPOS>SUBSTRUCTURE
1   ZINC000100378061 1     RESIDUE    1   A     ZIN   1
