@<TRIPOS>MOLECULE
ZINC000000020243
25    26    1     0     0
SMALL
USER_CHARGES
@<TRIPOS>ATOM
1      O1      0.0021   -0.0041    0.0020 O.co2    1 ZINC000000020243   -0.6900
2      C2     -0.0145    1.2192    0.0087 C.2      1 ZINC000000020243    0.5200
3      O3      1.0365    1.8452    0.0021 O.co2    1 ZINC000000020243   -0.6700
4      C4     -1.2991    1.9377    0.0187 C.ar     1 ZINC000000020243   -0.1600
5      C5     -2.5008    1.2262    0.0264 C.ar     1 ZINC000000020243   -0.0500
6      C6     -3.7085    1.9124    0.0363 C.ar     1 ZINC000000020243   -0.1000
7      C7     -4.9877    1.1608    0.0450 C.ar     1 ZINC000000020243   -0.0600
8      C8     -5.2025    0.1363   -0.8741 C.ar     1 ZINC000000020243   -0.0500
9      C9     -6.3938   -0.5603   -0.8627 C.ar     1 ZINC000000020243   -0.1600
10     C10    -7.3768   -0.2426    0.0604 C.ar     1 ZINC000000020243    0.1200
11     F11    -8.5412   -0.9276    0.0667 F        1 ZINC000000020243   -0.1400
12     C12    -7.1694    0.7747    0.9774 C.ar     1 ZINC000000020243   -0.1900
13     C13    -5.9776    1.4742    0.9778 C.ar     1 ZINC000000020243    0.1300
14     F14    -5.7753    2.4665    1.8721 F        1 ZINC000000020243   -0.1300
15     C15    -3.7199    3.3087    0.0386 C.ar     1 ZINC000000020243   -0.0900
16     C16    -2.5355    4.0140    0.0310 C.ar     1 ZINC000000020243   -0.1700
17     C17    -1.3218    3.3414    0.0265 C.ar     1 ZINC000000020243    0.1500
18     O18    -0.1592    4.0391    0.0195 O.3      1 ZINC000000020243   -0.4700
19     H19    -2.4911    0.1463    0.0243 H        1 ZINC000000020243    0.1300
20     H20    -4.4377   -0.1123   -1.5950 H        1 ZINC000000020243    0.1500
21     H21    -6.5604   -1.3546   -1.5753 H        1 ZINC000000020243    0.1400
22     H22    -7.9383    1.0187    1.6955 H        1 ZINC000000020243    0.1500
23     H23    -4.6610    3.8385    0.0459 H        1 ZINC000000020243    0.1200
24     H24    -2.5523    5.0939    0.0325 H        1 ZINC000000020243    0.1200
25     H25     0.1823    4.2433    0.9008 H        1 ZINC000000020243    0.3900
@<TRIPOS>BOND
1     1     2     ar
2     2     3     ar
3     2     4     1
4     4     17    ar
5     4     5     ar
6     5     6     ar
7     5     19    1
8     6     7     1
9     6     15    ar
10    7     13    ar
11    7     8     ar
12    8     9     ar
13    8     20    1
14    9     10    ar
15    9     21    1
16    10    11    1
17    10    12    ar
18    12    13    ar
19    12    22    1
20    13    14    1
21    15    16    ar
22    15    23    1
23    16    17    ar
24    16    24    1
25    17    18    1
26    18    25    1
@<TRIPOS>SUBSTRUCTURE
1   ZINC000000020243 1     RESIDUE    1   A     ZIN   1
