@<TRIPOS>MOLECULE
ZINC000000000850
27   28    0    0    0
SMALL
USER_CHARGES
NO_NAME
@<TRIPOS>ATOM
1 C1        0.0015     1.5258     0.1391 C.3    1 <0>      -0.1400
2 C2        0.0233     0.0010     0.0154 C.3    1 <0>       0.2200
3 H3       -0.9944    -0.3835     0.0818 H      1 <0>       0.0900
4 C4        0.6212    -0.3867    -1.3125 C.2    1 <0>      -0.1300
5 C5       -0.0762    -0.8274    -2.3407 C.2    1 <0>      -0.1600
6 C6        0.7091    -1.1420    -3.5232 C.ar   1 <0>      -0.0700
7 C7        0.2823    -1.6278    -4.7777 C.ar   1 <0>      -0.0900
8 C8        1.1843    -1.8625    -5.7699 C.ar   1 <0>      -0.1300
9 C9        2.5370    -1.6283    -5.5649 C.ar   1 <0>      -0.1200
10 C10       2.9807    -1.1546    -4.3527 C.ar   1 <0>      -0.0800
11 C11       2.0718    -0.9066    -3.3197 C.ar   1 <0>      -0.1900
12 S12       2.3313    -0.3019    -1.6884 S.3    1 <0>       0.2000
13 N13       0.8310    -0.5653     1.0985 N.am   1 <0>      -0.4400
14 O14       2.1634    -0.1268     1.2918 O.3    1 <0>      -0.6800
15 C15       0.3058    -1.5037     1.9110 C.2    1 <0>       0.6800
16 N16       1.0108    -1.9496     2.9696 N.am   1 <0>      -0.8700
17 O17      -0.8040    -1.9479     1.6890 O.2    1 <0>      -0.6700
18 H18       1.0192     1.9104     0.0727 H      1 <0>       0.0700
19 H19      -0.5995     1.9472    -0.6668 H      1 <0>       0.0500
20 H20      -0.4309     1.8063     1.0996 H      1 <0>       0.0500
21 H21      -1.1491    -0.9460    -2.3072 H      1 <0>       0.1400
22 H22      -0.7670    -1.8150    -4.9515 H      1 <0>       0.1200
23 H23       0.8443    -2.2346    -6.7251 H      1 <0>       0.1200
24 H24       3.2430    -1.8191    -6.3596 H      1 <0>       0.1200
25 H25       4.0343    -0.9742    -4.1979 H      1 <0>       0.1200
26 H26       1.8962    -1.5951     3.1467 H      1 <0>       0.4000
27 H27       0.6328    -2.6249     3.5543 H      1 <0>       0.3900
@<TRIPOS>BOND
1    1    2 1
2    1   18 1
3    1   19 1
4    1   20 1
5    2    3 1
6    2    4 1
7    2   13 1
8    4   12 1
9    4    5 2
10    5    6 1
11    5   21 1
12    6   11 ar
13    6    7 ar
14    7    8 ar
15    7   22 1
16    8    9 ar
17    8   23 1
18    9   10 ar
19    9   24 1
20   10   11 ar
21   10   25 1
22   11   12 1
23   13   14 1
24   13   15 am
25   15   16 am
26   15   17 2
27   16   26 1
28   16   27 1
