@<TRIPOS>MOLECULE
ZINC000003814422
52   55    0    0    0
SMALL
USER_CHARGES
NO_NAME
@<TRIPOS>ATOM
1 C1       -0.8229     1.0204     0.2010 C.3    1 <0>      -0.1800
2 C2       -0.7234    -0.5064     0.2068 C.3    1 <0>       0.1400
3 O3       -0.0648    -0.9634    -0.9762 O.3    1 <0>      -0.5500
4 C4       -2.1346    -1.1357     0.3149 C.3    1 <0>      -0.1500
5 C5       -2.1755    -1.8887     1.6727 C.3    1 <0>      -0.1100
6 C6       -1.1014    -1.1694     2.4962 C.3    1 <0>      -0.0800
7 H7       -1.4693    -0.2014     2.8364 H      1 <0>       0.0700
8 C8       -0.5274    -1.9546     3.6616 C.3    1 <0>      -0.0800
9 H9       -0.1118    -2.8977     3.3067 H      1 <0>       0.0900
10 C10      -1.6248    -2.2225     4.6955 C.3    1 <0>      -0.1100
11 C11      -1.0492    -3.0740     5.8291 C.3    1 <0>      -0.1000
12 C12       0.1691    -2.3706     6.3986 C.2    1 <0>      -0.0200
13 C13       0.2470    -2.2417     7.7230 C.2    1 <0>      -0.2400
14 C14       1.4097    -1.5846     8.3298 C.2    1 <0>       0.3900
15 O15       1.3650    -1.1103     9.4456 O.2    1 <0>      -0.4600
16 C16       2.6703    -1.5298     7.4892 C.3    1 <0>      -0.1700
17 C17       2.2778    -1.0015     6.1103 C.3    1 <0>      -0.1000
18 C18       1.2198    -1.8722     5.4551 C.3    1 <0>      -0.0300
19 C19       1.9197    -3.0862     4.8409 C.3    1 <0>      -0.1500
20 C20       0.5787    -1.0995     4.2967 C.3    1 <0>      -0.0700
21 H21       0.1192    -0.1916     4.6875 H      1 <0>       0.0700
22 C22       1.6616    -0.7153     3.2926 C.3    1 <0>      -0.1200
23 C23       1.0676    -0.0429     2.0448 C.3    1 <0>      -0.1000
24 C24       0.0268    -0.9824     1.4466 C.3    1 <0>      -0.0500
25 C25       0.6531    -2.3546     1.1904 C.3    1 <0>      -0.1400
26 H26       0.1790     1.4497     0.1978 H      1 <0>       0.0700
27 H27      -1.3607     1.3460    -0.6894 H      1 <0>       0.0600
28 H28      -1.3579     1.3530     1.0905 H      1 <0>       0.0700
29 H29      -0.5080    -0.7076    -1.7968 H      1 <0>       0.3700
30 H30      -2.8949    -0.3548     0.2971 H      1 <0>       0.0700
31 H31      -2.2963    -1.8348    -0.5056 H      1 <0>       0.0700
32 H32      -3.1541    -1.7858     2.1415 H      1 <0>       0.0700
33 H33      -1.9193    -2.9397     1.5388 H      1 <0>       0.0700
34 H34      -1.9851    -1.2757     5.0980 H      1 <0>       0.0700
35 H35      -2.4492    -2.7555     4.2220 H      1 <0>       0.0700
36 H36      -1.7989    -3.1968     6.6107 H      1 <0>       0.0800
37 H37      -0.7593    -4.0506     5.4414 H      1 <0>       0.0800
38 H38      -0.5462    -2.6217     8.3498 H      1 <0>       0.1300
39 H39       3.3945    -0.8586     7.9508 H      1 <0>       0.0900
40 H40       3.0968    -2.5285     7.3956 H      1 <0>       0.1000
41 H41       1.8897     0.0117     6.2152 H      1 <0>       0.0700
42 H42       3.1624    -0.9776     5.4738 H      1 <0>       0.0800
43 H43       2.3332    -3.7076     5.6353 H      1 <0>       0.0600
44 H44       1.2004    -3.6664     4.2629 H      1 <0>       0.0600
45 H45       2.7242    -2.7495     4.1870 H      1 <0>       0.0700
46 H46       2.3599    -0.0271     3.7688 H      1 <0>       0.0700
47 H47       2.2003    -1.6133     2.9900 H      1 <0>       0.0700
48 H48       0.5636     0.8818     2.3258 H      1 <0>       0.0600
49 H49       1.8583     0.1680     1.3248 H      1 <0>       0.0700
50 H50       1.1099    -2.7227     2.1090 H      1 <0>       0.0600
51 H51      -0.1191    -3.0512     0.8640 H      1 <0>       0.0500
52 H52       1.4148    -2.2674     0.4155 H      1 <0>       0.0600
@<TRIPOS>BOND
1    1    2 1
2    1   26 1
3    1   27 1
4    1   28 1
5    2   24 1
6    2    3 1
7    2    4 1
8    3   29 1
9    4    5 1
10    4   30 1
11    4   31 1
12    5    6 1
13    5   32 1
14    5   33 1
15    6    7 1
16    6   24 1
17    6    8 1
18    8    9 1
19    8   20 1
20    8   10 1
21   10   11 1
22   10   34 1
23   10   35 1
24   11   12 1
25   11   36 1
26   11   37 1
27   12   18 1
28   12   13 2
29   13   14 1
30   13   38 1
31   14   15 2
32   14   16 1
33   16   17 1
34   16   39 1
35   16   40 1
36   17   18 1
37   17   41 1
38   17   42 1
39   18   19 1
40   18   20 1
41   19   43 1
42   19   44 1
43   19   45 1
44   20   21 1
45   20   22 1
46   22   23 1
47   22   46 1
48   22   47 1
49   23   24 1
50   23   48 1
51   23   49 1
52   24   25 1
53   25   50 1
54   25   51 1
55   25   52 1
