@<TRIPOS>MOLECULE
ZINC000035024346
31    32    1     0     0
SMALL
USER_CHARGES
@<TRIPOS>ATOM
1      O1      0.0021   -0.0041    0.0020 O.co2    1 ZINC000035024346   -0.7000
2      C2     -0.0145    1.2150    0.0087 C.2      1 ZINC000035024346    0.4900
3      O3      1.0330    1.8389    0.0021 O.co2    1 ZINC000035024346   -0.7100
4      C4     -1.3296    1.9507    0.0190 C.3      1 ZINC000035024346   -0.1800
5      C5     -2.4790    0.9408    0.0189 C.3      1 ZINC000035024346   -0.0900
6      C6     -3.8142    1.6877    0.0293 C.3      1 ZINC000035024346   -0.1200
7      C7     -4.9635    0.6777    0.0293 C.3      1 ZINC000035024346   -0.1000
8      C8     -6.2988    1.4246    0.0397 C.3      1 ZINC000035024346   -0.0500
9      H9     -6.3481    2.1364   -0.7844 H        1 ZINC000035024346    0.1100
10     S10    -6.5586    2.2732    1.6505 S.3      1 ZINC000035024346   -0.2600
11     C11    -8.3947    2.2317    1.5521 C.3      1 ZINC000035024346   -0.0900
12     C12    -8.6660    0.8919    0.8400 C.3      1 ZINC000035024346    0.1200
13     H13    -9.5697    0.9627    0.2347 H        1 ZINC000035024346    0.1100
14     N14    -8.8092   -0.1713    1.8468 N.am     1 ZINC000035024346   -0.7300
15     C15    -7.8720   -1.1049    1.6331 C.2      1 ZINC000035024346    0.7100
16     O16    -7.7593   -2.1012    2.3208 O.2      1 ZINC000035024346   -0.5800
17     N17    -7.0706   -0.8408    0.5921 N.am     1 ZINC000035024346   -0.7300
18     C18    -7.4789    0.4351   -0.0217 C.3      1 ZINC000035024346    0.1200
19     H19    -7.7942    0.2741   -1.0526 H        1 ZINC000035024346    0.1100
20     H20    -1.3917    2.5717    0.9126 H        1 ZINC000035024346    0.0500
21     H21    -1.4001    2.5813   -0.8673 H        1 ZINC000035024346    0.0500
22     H22    -2.4169    0.3198   -0.8748 H        1 ZINC000035024346    0.0600
23     H23    -2.4085    0.3101    0.9052 H        1 ZINC000035024346    0.0600
24     H24    -3.8762    2.3086    0.9230 H        1 ZINC000035024346    0.0600
25     H25    -3.8847    2.3183   -0.8569 H        1 ZINC000035024346    0.0600
26     H26    -4.9015    0.0568   -0.8644 H        1 ZINC000035024346    0.0800
27     H27    -4.8931    0.0471    0.9155 H        1 ZINC000035024346    0.0800
28     H28    -8.8353    2.2356    2.5491 H        1 ZINC000035024346    0.1100
29     H29    -8.7689    3.0668    0.9599 H        1 ZINC000035024346    0.1000
30     H30    -9.4747   -0.1929    2.5521 H        1 ZINC000035024346    0.4300
31     H31    -6.3389   -1.4007    0.2887 H        1 ZINC000035024346    0.4300
@<TRIPOS>BOND
1     1     2     ar
2     2     3     ar
3     2     4     1
4     4     5     1
5     4     20    1
6     4     21    1
7     5     6     1
8     5     22    1
9     5     23    1
10    6     7     1
11    6     24    1
12    6     25    1
13    7     8     1
14    7     26    1
15    7     27    1
16    8     9     1
17    8     18    1
18    8     10    1
19    10    11    1
20    11    12    1
21    11    28    1
22    11    29    1
23    12    13    1
24    12    18    1
25    12    14    1
26    14    15    am
27    14    30    1
28    15    16    2
29    15    17    am
30    17    18    1
31    17    31    1
32    18    19    1
@<TRIPOS>SUBSTRUCTURE
1   ZINC000035024346 1     RESIDUE    1   A     ZIN   1
