@<TRIPOS>MOLECULE
ZINC000004099008
78    85    1     0     0
SMALL
USER_CHARGES
@<TRIPOS>ATOM
1      C1      0.2479    0.0414   -1.3703 C.3      1 ZINC000004099008    0.0200
2      O2      0.2040   -1.3155   -0.9244 O.3      1 ZINC000004099008   -0.3000
3      C3     -0.9899   -1.7758   -0.4639 C.ar     1 ZINC000004099008    0.1500
4      C4     -2.0964   -0.9402   -0.4473 C.ar     1 ZINC000004099008   -0.2100
5      C5     -3.3105   -1.4071    0.0206 C.ar     1 ZINC000004099008   -0.0200
6      C6     -4.5104   -0.4956    0.0368 C.3      1 ZINC000004099008    0.0200
7      H7     -4.1849    0.5406    0.1293 H        1 ZINC000004099008    0.1100
8      C8     -5.4139   -0.8563    1.2032 C.ar     1 ZINC000004099008   -0.0400
9      C9     -5.0086   -0.3984    2.4580 C.ar     1 ZINC000004099008   -0.0900
10     C10    -5.8089   -0.6960    3.5481 C.ar     1 ZINC000004099008    0.0500
11     C11    -6.9920   -1.4339    3.3917 C.ar     1 ZINC000004099008    0.0400
12     C12    -7.3861   -1.8875    2.1442 C.ar     1 ZINC000004099008   -0.0900
13     C13    -6.5705   -1.5903    1.0509 C.ar     1 ZINC000004099008   -0.1100
14     C14    -7.0265   -2.1378   -0.2901 C.3      1 ZINC000004099008    0.1500
15     H15    -7.4011   -3.1538   -0.1655 H        1 ZINC000004099008    0.1000
16     O16    -8.0564   -1.3055   -0.8271 O.3      1 ZINC000004099008   -0.3500
17     C17    -9.3769   -1.6933   -0.4424 C.3      1 ZINC000004099008    0.2200
18     H18    -9.4379   -1.7398    0.6449 H        1 ZINC000004099008    0.0800
19     O19    -9.6720   -2.9824   -0.9903 O.3      1 ZINC000004099008   -0.3800
20     C20   -10.9699   -3.4599   -0.6436 C.3      1 ZINC000004099008    0.0400
21     H21   -11.0682   -3.4880    0.4416 H        1 ZINC000004099008    0.0900
22     C22   -11.2164   -4.8574   -1.2134 C.3      1 ZINC000004099008    0.0700
23     O23   -12.5682   -5.2317   -0.9193 O.3      1 ZINC000004099008   -0.3600
24     C24   -13.5529   -4.3255   -1.4186 C.3      1 ZINC000004099008    0.3200
25     H25   -14.5430   -4.6628   -1.1120 H        1 ZINC000004099008    0.1600
26     C26   -13.4812   -4.2894   -2.9235 C.2      1 ZINC000004099008   -0.2800
27     C27   -13.1025   -5.3057   -3.6999 C.2      1 ZINC000004099008   -0.1000
28     C28   -13.1157   -5.0386   -5.0581 C.2      1 ZINC000004099008   -0.1400
29     C29   -13.5052   -3.8054   -5.3846 C.2      1 ZINC000004099008   -0.2100
30     S30   -13.8914   -2.9030   -3.9251 S.3      1 ZINC000004099008    0.1600
31     O31   -13.3183   -3.0104   -0.9029 O.3      1 ZINC000004099008   -0.3500
32     C32   -12.0222   -2.5081   -1.2270 C.3      1 ZINC000004099008    0.0600
33     H33   -11.9116   -2.4595   -2.3103 H        1 ZINC000004099008    0.0900
34     C34   -11.8037   -1.1181   -0.6293 C.3      1 ZINC000004099008    0.1300
35     H35   -11.9306   -1.1604    0.4524 H        1 ZINC000004099008    0.0800
36     O36   -12.7468   -0.2014   -1.1881 O.3      1 ZINC000004099008   -0.5400
37     C37   -10.3807   -0.6635   -0.9637 C.3      1 ZINC000004099008    0.0600
38     H38   -10.2764   -0.5632   -2.0440 H        1 ZINC000004099008    0.0900
39     O39   -10.1262    0.5979   -0.3423 O.3      1 ZINC000004099008   -0.5500
40     C40    -5.8304   -2.1429   -1.2235 C.3      1 ZINC000004099008   -0.1400
41     H41    -5.0676   -2.8516   -0.9011 H        1 ZINC000004099008    0.1300
42     C42    -6.1648   -2.2970   -2.7155 C.3      1 ZINC000004099008    0.0700
43     O43    -5.0763   -1.5624   -3.3757 O.3      1 ZINC000004099008   -0.3400
44     C44    -4.5413   -0.6429   -2.5386 C.2      1 ZINC000004099008    0.5000
45     O45    -3.6013    0.0753   -2.7842 O.2      1 ZINC000004099008   -0.4400
46     C46    -5.3041   -0.6709   -1.2410 C.3      1 ZINC000004099008   -0.1500
47     H47    -6.1447    0.0219   -1.2797 H        1 ZINC000004099008    0.1400
48     O48    -7.5788   -1.5776    4.6016 O.3      1 ZINC000004099008   -0.3000
49     C49    -6.5535   -1.2647    5.5674 C.3      1 ZINC000004099008    0.2100
50     O50    -5.6591   -0.3843    4.8555 O.3      1 ZINC000004099008   -0.3000
51     C51    -3.4269   -2.7080    0.4733 C.ar     1 ZINC000004099008   -0.2300
52     C52    -2.3252   -3.5499    0.4601 C.ar     1 ZINC000004099008    0.1400
53     O53    -2.4408   -4.8296    0.9057 O.3      1 ZINC000004099008   -0.3000
54     C54    -3.7271   -5.2399    1.3736 C.3      1 ZINC000004099008    0.0300
55     C55    -1.1041   -3.0860   -0.0145 C.ar     1 ZINC000004099008    0.0400
56     O56    -0.0204   -3.9092   -0.0291 O.3      1 ZINC000004099008   -0.4700
57     H57     1.2555    0.2796   -1.7109 H        1 ZINC000004099008    0.1000
58     H58    -0.4550    0.1766   -2.1924 H        1 ZINC000004099008    0.0600
59     H59    -0.0235    0.7031   -0.5477 H        1 ZINC000004099008    0.0600
60     H60    -2.0095    0.0768   -0.8001 H        1 ZINC000004099008    0.1400
61     H61    -4.0984    0.1710    2.5750 H        1 ZINC000004099008    0.1500
62     H62    -8.2972   -2.4542    2.0207 H        1 ZINC000004099008    0.1400
63     H63   -11.0650   -4.8460   -2.2928 H        1 ZINC000004099008    0.0800
64     H64   -10.5300   -5.5681   -0.7532 H        1 ZINC000004099008    0.1200
65     H65   -12.8075   -6.2643   -3.2993 H        1 ZINC000004099008    0.1500
66     H66   -12.8319   -5.7730   -5.7974 H        1 ZINC000004099008    0.1400
67     H67   -13.5761   -3.4209   -6.3914 H        1 ZINC000004099008    0.1700
68     H68   -12.6642    0.7015   -0.8519 H        1 ZINC000004099008    0.3900
69     H69    -9.2409    0.9482   -0.5114 H        1 ZINC000004099008    0.3900
70     H70    -6.1531   -3.3473   -3.0067 H        1 ZINC000004099008    0.1100
71     H71    -7.1295   -1.8434   -2.9432 H        1 ZINC000004099008    0.1000
72     H72    -6.9838   -0.7560    6.4301 H        1 ZINC000004099008    0.1400
73     H73    -6.0318   -2.1701    5.8776 H        1 ZINC000004099008    0.0900
74     H74    -4.3772   -3.0690    0.8381 H        1 ZINC000004099008    0.1400
75     H75    -4.0271   -4.6100    2.2111 H        1 ZINC000004099008    0.0600
76     H76    -4.4546   -5.1436    0.5677 H        1 ZINC000004099008    0.0600
77     H77    -3.6808   -6.2792    1.6991 H        1 ZINC000004099008    0.1000
78     H78     0.0782   -4.4150   -0.8474 H        1 ZINC000004099008    0.3800
@<TRIPOS>BOND
1     1     2     1
2     1     57    1
3     1     58    1
4     1     59    1
5     2     3     1
6     3     55    ar
7     3     4     ar
8     4     5     ar
9     4     60    1
10    5     6     1
11    5     51    ar
12    6     7     1
13    6     46    1
14    6     8     1
15    8     13    ar
16    8     9     ar
17    9     10    ar
18    9     61    1
19    10    50    1
20    10    11    ar
21    11    12    ar
22    11    48    1
23    12    13    ar
24    12    62    1
25    13    14    1
26    14    15    1
27    14    16    1
28    14    40    1
29    16    17    1
30    17    18    1
31    17    37    1
32    17    19    1
33    19    20    1
34    20    21    1
35    20    32    1
36    20    22    1
37    22    23    1
38    22    63    1
39    22    64    1
40    23    24    1
41    24    25    1
42    24    26    1
43    24    31    1
44    26    30    1
45    26    27    2
46    27    28    1
47    27    65    1
48    28    29    2
49    28    66    1
50    29    30    1
51    29    67    1
52    31    32    1
53    32    33    1
54    32    34    1
55    34    35    1
56    34    36    1
57    34    37    1
58    36    68    1
59    37    38    1
60    37    39    1
61    39    69    1
62    40    41    1
63    40    46    1
64    40    42    1
65    42    43    1
66    42    70    1
67    42    71    1
68    43    44    1
69    44    45    2
70    44    46    1
71    46    47    1
72    48    49    1
73    49    50    1
74    49    72    1
75    49    73    1
76    51    52    ar
77    51    74    1
78    52    53    1
79    52    55    ar
80    53    54    1
81    54    75    1
82    54    76    1
83    54    77    1
84    55    56    1
85    56    78    1
@<TRIPOS>SUBSTRUCTURE
1   ZINC000004099008 1     RESIDUE    1   A     ZIN   1
