@<TRIPOS>MOLECULE
ZINC000000901061
16   15    0    0    0
SMALL
USER_CHARGES
NO_NAME
@<TRIPOS>ATOM
1 O1        0.0021    -0.0041     0.0020 O.co2  1 <0>      -0.6900
2 C2       -0.0145     1.2150     0.0087 C.2    1 <0>       0.4800
3 O3        1.0330     1.8389     0.0021 O.co2  1 <0>      -0.6900
4 C4       -1.3296     1.9507     0.0190 C.3    1 <0>       0.0000
5 H5       -1.3550     2.6379     0.8646 H      1 <0>       0.1000
6 O6       -2.4000     1.0113     0.1364 O.3    1 <0>      -0.5600
7 C7       -1.4833     2.7388    -1.2834 C.3    1 <0>       0.0900
8 H8       -0.7192     3.5147    -1.3309 H      1 <0>       0.1100
9 O9       -1.3338     1.8544    -2.3958 O.3    1 <0>      -0.5400
10 C10      -2.8696     3.3847    -1.3281 C.3    1 <0>       0.0500
11 O11      -2.9713     4.2145    -2.4871 O.3    1 <0>      -0.5700
12 H12      -2.4389     0.3673    -0.5840 H      1 <0>       0.3700
13 H13      -1.9821     1.1373    -2.4181 H      1 <0>       0.3600
14 H14      -3.6318     2.6067    -1.3703 H      1 <0>       0.0500
15 H15      -3.0174     3.9901    -0.4338 H      1 <0>       0.0500
16 H16      -3.8260     4.6571    -2.5802 H      1 <0>       0.3700
@<TRIPOS>BOND
1    1    2 ar
2    2    3 ar
3    2    4 1
4    4    5 1
5    4    6 1
6    4    7 1
7    6   12 1
8    7    8 1
9    7    9 1
10    7   10 1
11    9   13 1
12   10   11 1
13   10   14 1
14   10   15 1
15   11   16 1
