@<TRIPOS>MOLECULE
ZINC000000000655
47    50    1     0     0
SMALL
USER_CHARGES
@<TRIPOS>ATOM
1      O1      0.1279    0.0043   -0.0055 O.2      1 ZINC000000000655   -0.5300
2      C2     -0.0144    1.2086    0.0087 C.2      1 ZINC000000000655    0.5300
3      C3      1.1933    2.1100    0.0140 C.3      1 ZINC000000000655   -0.1100
4      C4      2.3137    1.4569    0.8258 C.3      1 ZINC000000000655   -0.1000
5      C5      3.5398    2.3720    0.8311 C.3      1 ZINC000000000655   -0.1200
6      C6      4.0152    2.5962   -0.6058 C.3      1 ZINC000000000655   -0.1200
7      C7      2.8948    3.2494   -1.4176 C.3      1 ZINC000000000655   -0.1200
8      C8      1.6687    2.3342   -1.4229 C.3      1 ZINC000000000655   -0.1100
9      N9     -1.2526    1.7409    0.0141 N.am     1 ZINC000000000655   -0.6200
10     C10    -1.4598    3.1936   -0.0905 C.3      1 ZINC000000000655    0.0900
11     C11    -2.5092    3.4441   -1.1389 C.2      1 ZINC000000000655    0.5100
12     O12    -2.5575    4.5349   -1.6669 O.2      1 ZINC000000000655   -0.5300
13     N13    -3.3931    2.5081   -1.5114 N.am     1 ZINC000000000655   -0.6000
14     C14    -4.4745    2.9003   -2.4391 C.3      1 ZINC000000000655    0.1000
15     C15    -5.8075    2.7159   -1.7169 C.3      1 ZINC000000000655   -0.1000
16     C16    -5.8778    1.3591   -1.0674 C.ar     1 ZINC000000000655   -0.0700
17     C17    -7.1332    0.8393   -0.7821 C.ar     1 ZINC000000000655   -0.1200
18     C18    -7.2597   -0.3951   -0.1783 C.ar     1 ZINC000000000655   -0.1100
19     C19    -6.1287   -1.1203    0.1467 C.ar     1 ZINC000000000655   -0.1200
20     C20    -4.8800   -0.6075   -0.1402 C.ar     1 ZINC000000000655   -0.1100
21     C21    -4.7511    0.6311   -0.7529 C.ar     1 ZINC000000000655   -0.1000
22     C22    -3.3633    1.1258   -1.0654 C.3      1 ZINC000000000655    0.1800
23     H23    -2.9826    0.5334   -1.8973 H        1 ZINC000000000655    0.0800
24     C24    -2.4458    0.8929    0.1185 C.3      1 ZINC000000000655    0.1100
25     H25     0.9300    3.0676    0.4631 H        1 ZINC000000000655    0.0900
26     H26     1.9750    1.2971    1.8494 H        1 ZINC000000000655    0.0700
27     H27     2.5770    0.4992    0.3766 H        1 ZINC000000000655    0.0800
28     H28     3.2764    3.3296    1.2803 H        1 ZINC000000000655    0.0600
29     H29     4.3380    1.9067    1.4095 H        1 ZINC000000000655    0.0700
30     H30     4.8887    3.2482   -0.6019 H        1 ZINC000000000655    0.0600
31     H31     4.2785    1.6386   -1.0549 H        1 ZINC000000000655    0.0600
32     H32     2.6314    4.2070   -0.9684 H        1 ZINC000000000655    0.0700
33     H33     3.2334    3.4091   -2.4412 H        1 ZINC000000000655    0.0700
34     H34     1.9320    1.3766   -1.8721 H        1 ZINC000000000655    0.0700
35     H35     0.8705    2.7995   -2.0013 H        1 ZINC000000000655    0.0600
36     H36    -1.7967    3.5871    0.8685 H        1 ZINC000000000655    0.1100
37     H37    -0.5274    3.6782   -0.3804 H        1 ZINC000000000655    0.1300
38     H38    -4.3527    3.9447   -2.7263 H        1 ZINC000000000655    0.1100
39     H39    -4.4458    2.2680   -3.3265 H        1 ZINC000000000655    0.0800
40     H40    -5.9111    3.4858   -0.9523 H        1 ZINC000000000655    0.0800
41     H41    -6.6214    2.8125   -2.4354 H        1 ZINC000000000655    0.0900
42     H42    -8.0175    1.4055   -1.0343 H        1 ZINC000000000655    0.1200
43     H43    -8.2396   -0.7936    0.0394 H        1 ZINC000000000655    0.1300
44     H44    -6.2219   -2.0847    0.6238 H        1 ZINC000000000655    0.1300
45     H45    -3.9965   -1.1742    0.1141 H        1 ZINC000000000655    0.1300
46     H46    -2.1440   -0.1542    0.1414 H        1 ZINC000000000655    0.1200
47     H47    -2.9759    1.1346    1.0397 H        1 ZINC000000000655    0.0800
@<TRIPOS>BOND
1     1     2     2
2     2     3     1
3     2     9     am
4     3     8     1
5     3     4     1
6     3     25    1
7     4     5     1
8     4     26    1
9     4     27    1
10    5     6     1
11    5     28    1
12    5     29    1
13    6     7     1
14    6     30    1
15    6     31    1
16    7     8     1
17    7     32    1
18    7     33    1
19    8     34    1
20    8     35    1
21    9     24    1
22    9     10    1
23    10    11    1
24    10    36    1
25    10    37    1
26    11    12    2
27    11    13    am
28    13    22    1
29    13    14    1
30    14    15    1
31    14    38    1
32    14    39    1
33    15    16    1
34    15    40    1
35    15    41    1
36    16    21    ar
37    16    17    ar
38    17    18    ar
39    17    42    1
40    18    19    ar
41    18    43    1
42    19    20    ar
43    19    44    1
44    20    21    ar
45    20    45    1
46    21    22    1
47    22    23    1
48    22    24    1
49    24    46    1
50    24    47    1
@<TRIPOS>SUBSTRUCTURE
1   ZINC000000000655 1     RESIDUE    1   A     ZIN   1
