@<TRIPOS>MOLECULE
ZINC000004095858
81    82    1     0     0
SMALL
USER_CHARGES
@<TRIPOS>ATOM
1      C1     -0.0184    1.5028    0.0103 C.3      1 ZINC000004095858   -0.1100
2      C2      0.0021   -0.0041    0.0020 C.ar     1 ZINC000004095858   -0.0800
3      C3      0.0057   -0.6883   -1.1958 C.ar     1 ZINC000004095858   -0.1100
4      C4     -0.0119    0.0743   -2.4954 C.3      1 ZINC000004095858   -0.1100
5      C5      0.0261   -2.0794   -1.2093 C.ar     1 ZINC000004095858    0.1400
6      C6      0.0434   -2.7782   -0.0154 C.ar     1 ZINC000004095858   -0.1500
7      C7      0.0723   -4.2854    0.0126 C.3      1 ZINC000004095858   -0.0800
8      C8     -0.3618   -4.8351   -1.3484 C.3      1 ZINC000004095858   -0.1500
9      C9      0.4156   -4.0884   -2.4399 C.3      1 ZINC000004095858    0.1200
10     C10     1.9177   -4.2024   -2.1724 C.3      1 ZINC000004095858   -0.1800
11     C11     0.0888   -4.6895   -3.8083 C.3      1 ZINC000004095858   -0.1000
12     C12     0.9586   -4.0258   -4.8778 C.3      1 ZINC000004095858   -0.1200
13     C13     0.6317   -4.6270   -6.2463 C.3      1 ZINC000004095858   -0.1200
14     C14     1.5015   -3.9632   -7.3158 C.3      1 ZINC000004095858   -0.0900
15     H15     2.5517   -4.0569   -7.0396 H        1 ZINC000004095858    0.0700
16     C16     1.1332   -2.4823   -7.4259 C.3      1 ZINC000004095858   -0.1500
17     C17     1.2654   -4.6490   -8.6630 C.3      1 ZINC000004095858   -0.1200
18     C18     2.2242   -4.0697   -9.7051 C.3      1 ZINC000004095858   -0.1200
19     C19     1.9881   -4.7555  -11.0523 C.3      1 ZINC000004095858   -0.1200
20     C20     2.9470   -4.1763  -12.0944 C.3      1 ZINC000004095858   -0.0900
21     H21     3.9720   -4.2662  -11.7347 H        1 ZINC000004095858    0.0700
22     C22     2.6160   -2.7009  -12.3277 C.3      1 ZINC000004095858   -0.1500
23     C23     2.7981   -4.9463  -13.4081 C.3      1 ZINC000004095858   -0.1200
24     C24     3.8422   -4.4508  -14.4108 C.3      1 ZINC000004095858   -0.1200
25     C25     3.6934   -5.2208  -15.7245 C.3      1 ZINC000004095858   -0.1200
26     C26     4.7375   -4.7254  -16.7271 C.3      1 ZINC000004095858   -0.1000
27     C27     6.1384   -5.0660  -16.2148 C.3      1 ZINC000004095858   -0.1500
28     C28     4.5095   -5.4052  -18.0787 C.3      1 ZINC000004095858   -0.1500
29     O29     0.0246   -2.7150   -2.4111 O.3      1 ZINC000004095858   -0.3000
30     C30     0.0373   -2.0903    1.1868 C.ar     1 ZINC000004095858   -0.0800
31     C31     0.0528   -2.8519    2.4871 C.3      1 ZINC000004095858   -0.1200
32     C32     0.0230   -0.7051    1.1989 C.ar     1 ZINC000004095858    0.0700
33     O33     0.0182   -0.0342    2.3816 O.3      1 ZINC000004095858   -0.4900
34     H34     1.0042    1.8801    0.0026 H        1 ZINC000004095858    0.0700
35     H35    -0.5455    1.8639   -0.8728 H        1 ZINC000004095858    0.0700
36     H36    -0.5286    1.8543    0.9071 H        1 ZINC000004095858    0.0700
37     H37     1.0114    0.2730   -2.8141 H        1 ZINC000004095858    0.0700
38     H38    -0.5212   -0.5167   -3.2566 H        1 ZINC000004095858    0.0700
39     H39    -0.5386    1.0183   -2.3556 H        1 ZINC000004095858    0.0700
40     H40     1.0841   -4.6246    0.2348 H        1 ZINC000004095858    0.0800
41     H41    -0.6081   -4.6469    0.7835 H        1 ZINC000004095858    0.0800
42     H42    -0.1388   -5.9007   -1.4023 H        1 ZINC000004095858    0.0800
43     H43    -1.4314   -4.6757   -1.4848 H        1 ZINC000004095858    0.0800
44     H44     2.2087   -5.2528   -2.1759 H        1 ZINC000004095858    0.0700
45     H45     2.4666   -3.6708   -2.9497 H        1 ZINC000004095858    0.0700
46     H46     2.1481   -3.7648   -1.2010 H        1 ZINC000004095858    0.0600
47     H47     0.2881   -5.7610   -3.7915 H        1 ZINC000004095858    0.0800
48     H48    -0.9630   -4.5192   -4.0382 H        1 ZINC000004095858    0.0700
49     H49     0.7593   -2.9543   -4.8947 H        1 ZINC000004095858    0.0700
50     H50     2.0103   -4.1962   -4.6480 H        1 ZINC000004095858    0.0600
51     H51     0.8310   -5.6984   -6.2294 H        1 ZINC000004095858    0.0600
52     H52    -0.4201   -4.4566   -6.4762 H        1 ZINC000004095858    0.0600
53     H53     0.0829   -2.3887   -7.7021 H        1 ZINC000004095858    0.0500
54     H54     1.3014   -1.9938   -6.4661 H        1 ZINC000004095858    0.0600
55     H55     1.7528   -2.0094   -8.1878 H        1 ZINC000004095858    0.0500
56     H56     1.4425   -5.7197   -8.5617 H        1 ZINC000004095858    0.0600
57     H57     0.2369   -4.4794   -8.9817 H        1 ZINC000004095858    0.0600
58     H58     2.0471   -2.9990   -9.8064 H        1 ZINC000004095858    0.0700
59     H59     3.2527   -4.2393   -9.3864 H        1 ZINC000004095858    0.0600
60     H60     2.1653   -5.8262  -10.9510 H        1 ZINC000004095858    0.0600
61     H61     0.9596   -4.5859  -11.3710 H        1 ZINC000004095858    0.0600
62     H62     1.5910   -2.6109  -12.6874 H        1 ZINC000004095858    0.0500
63     H63     2.7220   -2.1523  -11.3918 H        1 ZINC000004095858    0.0500
64     H64     3.2991   -2.2882  -13.0701 H        1 ZINC000004095858    0.0500
65     H65     2.9470   -6.0103  -13.2244 H        1 ZINC000004095858    0.0600
66     H66     1.7994   -4.7837  -13.8134 H        1 ZINC000004095858    0.0600
67     H67     3.6934   -3.3868  -14.5944 H        1 ZINC000004095858    0.0600
68     H68     4.8410   -4.6134  -14.0055 H        1 ZINC000004095858    0.0600
69     H69     3.8422   -6.2849  -15.5408 H        1 ZINC000004095858    0.0600
70     H70     2.6947   -5.0583  -16.1297 H        1 ZINC000004095858    0.0600
71     H71     4.6457   -3.6455  -16.8435 H        1 ZINC000004095858    0.0700
72     H72     6.8822   -4.7130  -16.9292 H        1 ZINC000004095858    0.0500
73     H73     6.3008   -4.5817  -15.2520 H        1 ZINC000004095858    0.0600
74     H74     6.2301   -6.1458  -16.0985 H        1 ZINC000004095858    0.0500
75     H75     3.5114   -5.1626  -18.4437 H        1 ZINC000004095858    0.0500
76     H76     5.2533   -5.0523  -18.7930 H        1 ZINC000004095858    0.0500
77     H77     4.6012   -6.4851  -17.9623 H        1 ZINC000004095858    0.0500
78     H78     1.0841   -3.0204    2.7972 H        1 ZINC000004095858    0.0700
79     H79    -0.4670   -2.2752    3.2521 H        1 ZINC000004095858    0.0700
80     H80    -0.4474   -3.8109    2.3524 H        1 ZINC000004095858    0.0700
81     H81     0.9001    0.1691    2.7221 H        1 ZINC000004095858    0.3800
@<TRIPOS>BOND
1     1     2     1
2     1     34    1
3     1     35    1
4     1     36    1
5     2     32    ar
6     2     3     ar
7     3     4     1
8     3     5     ar
9     4     37    1
10    4     38    1
11    4     39    1
12    5     29    1
13    5     6     ar
14    6     7     1
15    6     30    ar
16    7     8     1
17    7     40    1
18    7     41    1
19    8     9     1
20    8     42    1
21    8     43    1
22    9     10    1
23    9     11    1
24    9     29    1
25    10    44    1
26    10    45    1
27    10    46    1
28    11    12    1
29    11    47    1
30    11    48    1
31    12    13    1
32    12    49    1
33    12    50    1
34    13    14    1
35    13    51    1
36    13    52    1
37    14    15    1
38    14    16    1
39    14    17    1
40    16    53    1
41    16    54    1
42    16    55    1
43    17    18    1
44    17    56    1
45    17    57    1
46    18    19    1
47    18    58    1
48    18    59    1
49    19    20    1
50    19    60    1
51    19    61    1
52    20    21    1
53    20    22    1
54    20    23    1
55    22    62    1
56    22    63    1
57    22    64    1
58    23    24    1
59    23    65    1
60    23    66    1
61    24    25    1
62    24    67    1
63    24    68    1
64    25    26    1
65    25    69    1
66    25    70    1
67    26    27    1
68    26    28    1
69    26    71    1
70    27    72    1
71    27    73    1
72    27    74    1
73    28    75    1
74    28    76    1
75    28    77    1
76    30    31    1
77    30    32    ar
78    31    78    1
79    31    79    1
80    31    80    1
81    32    33    1
82    33    81    1
@<TRIPOS>SUBSTRUCTURE
1   ZINC000004095858 1     RESIDUE    1   A     ZIN   1
