@<TRIPOS>MOLECULE
ZINC000004655029
68    72    1     0     0
SMALL
USER_CHARGES
@<TRIPOS>ATOM
1      C1      0.2652    1.5067    0.8668 C.3      1 ZINC000004655029    0.0400
2      O2      0.2647    0.0976    0.6292 O.3      1 ZINC000004655029   -0.3000
3      C3     -0.9418   -0.4981    0.4625 C.ar     1 ZINC000004655029    0.3700
4      C4     -0.9963   -1.8779    0.2326 C.ar     1 ZINC000004655029   -0.1300
5      C5      0.2756   -2.6840    0.1731 C.3      1 ZINC000004655029   -0.0300
6      H6      1.1331   -2.0112    0.1856 H        1 ZINC000004655029    0.1200
7      C7      0.3426   -3.6053    1.3638 C.ar     1 ZINC000004655029   -0.0700
8      C8      1.4411   -3.5723    2.2023 C.ar     1 ZINC000004655029   -0.1000
9      C9      1.5026   -4.4174    3.2945 C.ar     1 ZINC000004655029   -0.1100
10     C10     0.4654   -5.2952    3.5484 C.ar     1 ZINC000004655029   -0.1200
11     C11    -0.6335   -5.3276    2.7104 C.ar     1 ZINC000004655029   -0.1100
12     C12    -0.6969   -4.4795    1.6207 C.ar     1 ZINC000004655029   -0.1400
13     C13     0.2953   -3.5114   -1.1137 C.3      1 ZINC000004655029    0.2000
14     O14    -0.7478   -4.4871   -1.0687 O.3      1 ZINC000004655029   -0.5500
15     C15     0.0800   -2.5899   -2.3160 C.3      1 ZINC000004655029   -0.1100
16     C16     0.1581   -3.4083   -3.6063 C.3      1 ZINC000004655029    0.0600
17     N17     0.0743   -2.5072   -4.7635 N.3      1 ZINC000004655029   -0.5500
18     C18     0.3817   -3.2211   -6.0100 C.3      1 ZINC000004655029    0.0300
19     C19    -1.2449   -1.8651   -4.8362 C.3      1 ZINC000004655029    0.0200
20     C20     1.6268   -4.2051   -1.2446 C.ar     1 ZINC000004655029   -0.0900
21     C21     2.8113   -3.4526   -1.3134 C.ar     1 ZINC000004655029   -0.0300
22     C22     2.7880   -2.0483   -1.2622 C.ar     1 ZINC000004655029   -0.1200
23     C23     3.9556   -1.3526   -1.3312 C.ar     1 ZINC000004655029   -0.1100
24     C24     5.1777   -2.0116   -1.4528 C.ar     1 ZINC000004655029   -0.1100
25     C25     5.2390   -3.3701   -1.5059 C.ar     1 ZINC000004655029   -0.1100
26     C26     4.0542   -4.1229   -1.4365 C.ar     1 ZINC000004655029   -0.0500
27     C27     4.0776   -5.5268   -1.4876 C.ar     1 ZINC000004655029   -0.1000
28     C28     2.9098   -6.2228   -1.4172 C.ar     1 ZINC000004655029   -0.1100
29     C29     1.6885   -5.5641   -1.2911 C.ar     1 ZINC000004655029   -0.1100
30     C30    -2.2020   -2.4914    0.0631 C.ar     1 ZINC000004655029   -0.0100
31     C31    -3.3672   -1.7015    0.1265 C.ar     1 ZINC000004655029   -0.1300
32     C32    -4.6411   -2.2672   -0.0386 C.ar     1 ZINC000004655029   -0.0400
33     C33    -5.7454   -1.4719    0.0297 C.ar     1 ZINC000004655029   -0.1000
34     Br34   -7.4610   -2.2354   -0.1929 Br       1 ZINC000004655029   -0.0400
35     C35    -5.6264   -0.1026    0.2619 C.ar     1 ZINC000004655029   -0.0700
36     C36    -4.4064    0.4778    0.4263 C.ar     1 ZINC000004655029   -0.1000
37     C37    -3.2443   -0.3102    0.3621 C.ar     1 ZINC000004655029    0.1800
38     N38    -2.0332    0.2337    0.5260 N.ar     1 ZINC000004655029   -0.5400
39     H39     1.2914    1.8554    0.9820 H        1 ZINC000004655029    0.1000
40     H40    -0.1997    2.0176    0.0236 H        1 ZINC000004655029    0.0600
41     H41    -0.2959    1.7220    1.7762 H        1 ZINC000004655029    0.0600
42     H42     2.2515   -2.8865    2.0039 H        1 ZINC000004655029    0.1200
43     H43     2.3612   -4.3921    3.9492 H        1 ZINC000004655029    0.1200
44     H44     0.5138   -5.9560    4.4013 H        1 ZINC000004655029    0.1200
45     H45    -1.4437   -6.0136    2.9087 H        1 ZINC000004655029    0.1200
46     H46    -1.5555   -4.5048    0.9660 H        1 ZINC000004655029    0.1300
47     H47    -0.6207   -5.1678   -0.3937 H        1 ZINC000004655029    0.3800
48     H48    -0.9007   -2.1200   -2.2425 H        1 ZINC000004655029    0.0700
49     H49     0.8518   -1.8202   -2.3266 H        1 ZINC000004655029    0.1000
50     H50     1.1031   -3.9507   -3.6359 H        1 ZINC000004655029    0.0700
51     H51    -0.6690   -4.1175   -3.6374 H        1 ZINC000004655029    0.0400
52     H52    -0.3307   -4.0345   -6.1480 H        1 ZINC000004655029    0.0200
53     H53     0.3124   -2.5308   -6.8507 H        1 ZINC000004655029    0.0700
54     H54     1.3916   -3.6278   -5.9562 H        1 ZINC000004655029    0.0700
55     H55    -1.4176   -1.2860   -3.9291 H        1 ZINC000004655029    0.0700
56     H56    -1.2798   -1.2035   -5.7018 H        1 ZINC000004655029    0.0700
57     H57    -2.0162   -2.6293   -4.9318 H        1 ZINC000004655029    0.0300
58     H58     1.8484   -1.5240   -1.1688 H        1 ZINC000004655029    0.1400
59     H59     3.9348   -0.2735   -1.2916 H        1 ZINC000004655029    0.1200
60     H60     6.0896   -1.4355   -1.5060 H        1 ZINC000004655029    0.1200
61     H61     6.1932   -3.8671   -1.6009 H        1 ZINC000004655029    0.1300
62     H62     5.0171   -6.0509   -1.5826 H        1 ZINC000004655029    0.1300
63     H63     2.9306   -7.3019   -1.4571 H        1 ZINC000004655029    0.1200
64     H64     0.7766   -6.1402   -1.2370 H        1 ZINC000004655029    0.1200
65     H65    -2.2624   -3.5548   -0.1155 H        1 ZINC000004655029    0.1700
66     H66    -4.7454   -3.3269   -0.2190 H        1 ZINC000004655029    0.1400
67     H67    -6.5163    0.5074    0.3117 H        1 ZINC000004655029    0.1400
68     H68    -4.3314    1.5402    0.6052 H        1 ZINC000004655029    0.1400
@<TRIPOS>BOND
1     1     2     1
2     1     39    1
3     1     40    1
4     1     41    1
5     2     3     1
6     3     38    ar
7     3     4     ar
8     4     5     1
9     4     30    ar
10    5     6     1
11    5     7     1
12    5     13    1
13    7     12    ar
14    7     8     ar
15    8     9     ar
16    8     42    1
17    9     10    ar
18    9     43    1
19    10    11    ar
20    10    44    1
21    11    12    ar
22    11    45    1
23    12    46    1
24    13    14    1
25    13    15    1
26    13    20    1
27    14    47    1
28    15    16    1
29    15    48    1
30    15    49    1
31    16    17    1
32    16    50    1
33    16    51    1
34    17    18    1
35    17    19    1
36    18    52    1
37    18    53    1
38    18    54    1
39    19    55    1
40    19    56    1
41    19    57    1
42    20    29    ar
43    20    21    ar
44    21    26    ar
45    21    22    ar
46    22    23    ar
47    22    58    1
48    23    24    ar
49    23    59    1
50    24    25    ar
51    24    60    1
52    25    26    ar
53    25    61    1
54    26    27    ar
55    27    28    ar
56    27    62    1
57    28    29    ar
58    28    63    1
59    29    64    1
60    30    31    ar
61    30    65    1
62    31    37    ar
63    31    32    ar
64    32    33    ar
65    32    66    1
66    33    34    1
67    33    35    ar
68    35    36    ar
69    35    67    1
70    36    37    ar
71    36    68    1
72    37    38    ar
@<TRIPOS>SUBSTRUCTURE
1   ZINC000004655029 1     RESIDUE    1   A     ZIN   1
