@<TRIPOS>MOLECULE
ZINC000006094354
46    50    1     0     0
SMALL
USER_CHARGES
@<TRIPOS>ATOM
1      O1      0.1151    0.0397    0.6415 O.2      1 ZINC000006094354   -0.5300
2      C2      0.0355    1.2165    0.3475 C.2      1 ZINC000006094354    0.5600
3      C3     -1.2732    1.9037    0.3733 C.ar     1 ZINC000006094354   -0.1300
4      C4     -2.3635    1.3161    1.0106 C.ar     1 ZINC000006094354   -0.0600
5      C5     -3.5721    1.9821    1.0364 C.ar     1 ZINC000006094354   -0.1300
6      C6     -3.6941    3.2164    0.4323 C.ar     1 ZINC000006094354   -0.1000
7      C7     -2.6121    3.8102   -0.2129 C.ar     1 ZINC000006094354   -0.0800
8      C8     -1.4044    3.1540   -0.2410 C.ar     1 ZINC000006094354   -0.0400
9      C9     -0.2041    3.7397   -0.9394 C.3      1 ZINC000006094354   -0.0700
10     H10    -0.1620    3.3663   -1.9625 H        1 ZINC000006094354    0.0900
11     C11    -0.3327    5.2651   -0.9588 C.3      1 ZINC000006094354   -0.1100
12     C12    -1.6402    5.6376   -1.6530 C.3      1 ZINC000006094354   -0.1200
13     C13    -2.8352    5.1469   -0.8574 C.3      1 ZINC000006094354   -0.0800
14     C14     1.0777    3.3540   -0.2048 C.3      1 ZINC000006094354    0.1100
15     N15     1.1392    1.9054    0.0014 N.am     1 ZINC000006094354   -0.6000
16     C16     2.4108    1.1995   -0.1750 C.3      1 ZINC000006094354    0.1200
17     H17     2.3422    0.5328   -1.0346 H        1 ZINC000006094354    0.0800
18     C18     2.7240    0.3842    1.0830 C.3      1 ZINC000006094354    0.0500
19     N19     3.9949    0.8447    1.6581 N.3      1 ZINC000006094354   -0.5300
20     C20     5.1059    0.6349    0.7196 C.3      1 ZINC000006094354    0.0500
21     C21     4.8603    1.4564   -0.5492 C.3      1 ZINC000006094354   -0.1500
22     C22     3.5361    2.2167   -0.4019 C.3      1 ZINC000006094354   -0.1000
23     C23     3.6269    3.1229    0.8323 C.3      1 ZINC000006094354   -0.1700
24     C24     3.9100    2.2539    2.0660 C.3      1 ZINC000006094354    0.0500
25     H25    -2.2642    0.3483    1.4797 H        1 ZINC000006094354    0.1400
26     H26    -4.4233    1.5364    1.5297 H        1 ZINC000006094354    0.1300
27     H27    -4.6437    3.7301    0.4598 H        1 ZINC000006094354    0.1300
28     H28    -0.3403    5.6444    0.0631 H        1 ZINC000006094354    0.0700
29     H29     0.5067    5.6958   -1.5047 H        1 ZINC000006094354    0.0800
30     H30    -1.6968    6.7216   -1.7525 H        1 ZINC000006094354    0.0700
31     H31    -1.6604    5.1861   -2.6449 H        1 ZINC000006094354    0.0700
32     H32    -3.6937    5.0742   -1.5251 H        1 ZINC000006094354    0.0800
33     H33    -3.0611    5.8767   -0.0799 H        1 ZINC000006094354    0.0800
34     H34     1.9383    3.6694   -0.7947 H        1 ZINC000006094354    0.1000
35     H35     1.1025    3.8567    0.7621 H        1 ZINC000006094354    0.0700
36     H36     1.9249    0.5190    1.8120 H        1 ZINC000006094354    0.0900
37     H37     2.8042   -0.6710    0.8218 H        1 ZINC000006094354    0.0900
38     H38     6.0393    0.9531    1.1839 H        1 ZINC000006094354    0.0800
39     H39     5.1694   -0.4222    0.4617 H        1 ZINC000006094354    0.0800
40     H40     5.6756    2.1664   -0.6880 H        1 ZINC000006094354    0.0700
41     H41     4.8030    0.7904   -1.4101 H        1 ZINC000006094354    0.0700
42     H42     3.3393    2.8039   -1.2988 H        1 ZINC000006094354    0.0900
43     H43     4.4375    3.8396    0.7003 H        1 ZINC000006094354    0.0700
44     H44     2.6847    3.6547    0.9650 H        1 ZINC000006094354    0.0800
45     H45     3.1024    2.3734    2.7882 H        1 ZINC000006094354    0.0700
46     H46     4.8523    2.5618    2.5193 H        1 ZINC000006094354    0.0800
@<TRIPOS>BOND
1     1     2     2
2     2     15    am
3     2     3     1
4     3     8     ar
5     3     4     ar
6     4     5     ar
7     4     25    1
8     5     6     ar
9     5     26    1
10    6     7     ar
11    6     27    1
12    7     13    1
13    7     8     ar
14    8     9     1
15    9     10    1
16    9     11    1
17    9     14    1
18    11    12    1
19    11    28    1
20    11    29    1
21    12    13    1
22    12    30    1
23    12    31    1
24    13    32    1
25    13    33    1
26    14    15    1
27    14    34    1
28    14    35    1
29    15    16    1
30    16    17    1
31    16    22    1
32    16    18    1
33    18    19    1
34    18    36    1
35    18    37    1
36    19    24    1
37    19    20    1
38    20    21    1
39    20    38    1
40    20    39    1
41    21    22    1
42    21    40    1
43    21    41    1
44    22    23    1
45    22    42    1
46    23    24    1
47    23    43    1
48    23    44    1
49    24    45    1
50    24    46    1
@<TRIPOS>SUBSTRUCTURE
1   ZINC000006094354 1     RESIDUE    1   A     ZIN   1
