@<TRIPOS>MOLECULE
ZINC000000020783
40    40    1     0     0
SMALL
USER_CHARGES
@<TRIPOS>ATOM
1      C1     -0.0705    1.5440    0.0639 C.3      1 ZINC000000020783   -0.1600
2      C2     -0.0297    0.0185    0.1733 C.3      1 ZINC000000020783   -0.1200
3      C3     -1.4491   -0.5396    0.0519 C.3      1 ZINC000000020783   -0.0400
4      H4     -2.0901   -0.0675    0.7965 H        1 ZINC000000020783    0.0900
5      C5     -1.9855   -0.2529   -1.3269 C.ar     1 ZINC000000020783   -0.0800
6      C6     -1.3368   -0.7570   -2.4388 C.ar     1 ZINC000000020783   -0.1300
7      C7     -1.8265   -0.4957   -3.7055 C.ar     1 ZINC000000020783   -0.1000
8      C8     -2.9653    0.2699   -3.8626 C.ar     1 ZINC000000020783   -0.1400
9      C9     -3.6181    0.7770   -2.7482 C.ar     1 ZINC000000020783    0.1200
10     O10    -4.7391    1.5302   -2.9001 O.3      1 ZINC000000020783   -0.5000
11     C11    -3.1282    0.5087   -1.4785 C.ar     1 ZINC000000020783   -0.1500
12     C12    -1.4243   -2.0515    0.2853 C.3      1 ZINC000000020783   -0.1100
13     H13    -0.7834   -2.5236   -0.4592 H        1 ZINC000000020783    0.1000
14     C14    -0.8798   -2.3426    1.6852 C.3      1 ZINC000000020783   -0.1700
15     C15    -2.8437   -2.6096    0.1640 C.3      1 ZINC000000020783   -0.0100
16     N16    -2.8036   -4.0750    0.2597 N.4      1 ZINC000000020783   -0.3900
17     H17    -2.3285   -4.3437    1.1083 H        1 ZINC000000020783    0.4200
18     C18    -4.1746   -4.6022    0.2781 C.3      1 ZINC000000020783   -0.0500
19     C19    -2.0841   -4.6218   -0.8985 C.3      1 ZINC000000020783   -0.0500
20     H20     0.9407    1.9416    0.1504 H        1 ZINC000000020783    0.0600
21     H21    -0.4914    1.8280   -0.9006 H        1 ZINC000000020783    0.0600
22     H22    -0.6899    1.9492    0.8641 H        1 ZINC000000020783    0.0600
23     H23     0.5896   -0.3867   -0.6269 H        1 ZINC000000020783    0.0700
24     H24     0.3911   -0.2655    1.1378 H        1 ZINC000000020783    0.0700
25     H25    -0.4460   -1.3556   -2.3181 H        1 ZINC000000020783    0.1200
26     H26    -1.3178   -0.8904   -4.5726 H        1 ZINC000000020783    0.1300
27     H27    -3.3471    0.4739   -4.8520 H        1 ZINC000000020783    0.1300
28     H28    -5.5595    1.0183   -2.9026 H        1 ZINC000000020783    0.3900
29     H29    -3.6346    0.9023   -0.6095 H        1 ZINC000000020783    0.1300
30     H30    -0.9557   -3.4105    1.8898 H        1 ZINC000000020783    0.0500
31     H31     0.1646   -2.0355    1.7399 H        1 ZINC000000020783    0.0900
32     H32    -1.4604   -1.7891    2.4233 H        1 ZINC000000020783    0.0800
33     H33    -3.4614   -2.2098    0.9682 H        1 ZINC000000020783    0.1300
34     H34    -3.2671   -2.3198   -0.7977 H        1 ZINC000000020783    0.1300
35     H35    -4.6838   -4.2590    1.1786 H        1 ZINC000000020783    0.1200
36     H36    -4.7122   -4.2472   -0.6011 H        1 ZINC000000020783    0.1200
37     H37    -4.1449   -5.6918    0.2704 H        1 ZINC000000020783    0.1300
38     H38    -1.0669   -4.2305   -0.9121 H        1 ZINC000000020783    0.1200
39     H39    -2.0543   -5.7090   -0.8275 H        1 ZINC000000020783    0.1300
40     H40    -2.5974   -4.3315   -1.8152 H        1 ZINC000000020783    0.1200
@<TRIPOS>BOND
1     1     2     1
2     1     20    1
3     1     21    1
4     1     22    1
5     2     3     1
6     2     23    1
7     2     24    1
8     3     4     1
9     3     5     1
10    3     12    1
11    5     11    ar
12    5     6     ar
13    6     7     ar
14    6     25    1
15    7     8     ar
16    7     26    1
17    8     9     ar
18    8     27    1
19    9     10    1
20    9     11    ar
21    10    28    1
22    11    29    1
23    12    13    1
24    12    14    1
25    12    15    1
26    14    30    1
27    14    31    1
28    14    32    1
29    15    16    1
30    15    33    1
31    15    34    1
32    16    17    1
33    16    18    1
34    16    19    1
35    18    35    1
36    18    36    1
37    18    37    1
38    19    38    1
39    19    39    1
40    19    40    1
@<TRIPOS>SUBSTRUCTURE
1   ZINC000000020783 1     RESIDUE    1   A     ZIN   1
