@<TRIPOS>MOLECULE
ZINC000003826253
53    57    1     0     0
SMALL
USER_CHARGES
@<TRIPOS>ATOM
1      C1      0.3727    1.9210   -0.1330 C.3      1 ZINC000003826253    0.0300
2      O2      0.1948    0.5053   -0.2107 O.3      1 ZINC000003826253   -0.3100
3      C3      0.7030   -0.1221   -1.3062 C.ar     1 ZINC000003826253    0.1000
4      C4     -0.0148   -0.1402   -2.4948 C.ar     1 ZINC000003826253    0.0600
5      N5     -1.2600    0.4877   -2.5616 N.3      1 ZINC000003826253   -0.4400
6      C6     -2.3038   -0.4507   -3.0465 C.3      1 ZINC000003826253    0.0200
7      C7     -3.4150    0.4534   -3.6479 C.3      1 ZINC000003826253   -0.0800
8      H8     -4.2239    0.5686   -2.9264 H        1 ZINC000003826253    0.1100
9      C9     -3.9388   -0.2322   -4.8968 C.3      1 ZINC000003826253   -0.1400
10     C10    -4.3855    0.7661   -5.9584 C.3      1 ZINC000003826253   -0.1400
11     C11    -3.2034    1.6997   -6.2520 C.3      1 ZINC000003826253   -0.0200
12     N12    -2.9884    2.5311   -5.0681 N.4      1 ZINC000003826253   -0.4800
13     H13    -2.1972    3.1336   -5.2388 H        1 ZINC000003826253    0.4300
14     H14    -3.8047    3.1074   -4.9285 H        1 ZINC000003826253    0.4300
15     C15    -2.7440    1.7900   -3.8778 C.3      1 ZINC000003826253    0.0100
16     H16    -3.1157    2.4117   -3.0633 H        1 ZINC000003826253    0.1300
17     C17    -1.2515    1.5843   -3.5700 C.3      1 ZINC000003826253    0.0100
18     C18     0.4992   -0.7810   -3.6232 C.ar     1 ZINC000003826253    0.0200
19     F19    -0.2105   -0.7894   -4.7728 F        1 ZINC000003826253   -0.1400
20     C20     1.7169   -1.3996   -3.5717 C.ar     1 ZINC000003826253   -0.0500
21     C21     2.4521   -1.3913   -2.3837 C.ar     1 ZINC000003826253   -0.1600
22     C22     1.9485   -0.7439   -1.2412 C.ar     1 ZINC000003826253    0.2000
23     N23     2.6748   -0.7367   -0.0671 N.pl3    1 ZINC000003826253   -0.4500
24     C24     2.1143   -0.0516    1.1003 C.3      1 ZINC000003826253    0.0300
25     C25     2.9299   -0.0789    2.3945 C.3      1 ZINC000003826253   -0.1800
26     C26     2.8237    1.2147    1.5843 C.3      1 ZINC000003826253   -0.1900
27     C27     3.8684   -1.3291    0.0499 C.2      1 ZINC000003826253    0.1400
28     C28     4.4651   -1.9959   -1.0035 C.2      1 ZINC000003826253   -0.2800
29     C29     5.7749   -2.6333   -0.8359 C.2      1 ZINC000003826253    0.5400
30     O30     6.3490   -2.5775    0.2438 O.co2    1 ZINC000003826253   -0.7000
31     O31     6.2942   -3.2213   -1.7756 O.co2    1 ZINC000003826253   -0.6600
32     C32     3.7664   -2.0501   -2.2992 C.2      1 ZINC000003826253    0.4100
33     O33     4.2507   -2.6259   -3.2580 O.2      1 ZINC000003826253   -0.4400
34     H34     1.4356    2.1499   -0.0559 H        1 ZINC000003826253    0.0600
35     H35    -0.0355    2.3883   -1.0291 H        1 ZINC000003826253    0.0400
36     H36    -0.1462    2.3048    0.7454 H        1 ZINC000003826253    0.1000
37     H37    -1.8947   -1.1081   -3.8137 H        1 ZINC000003826253    0.0800
38     H38    -2.7004   -1.0366   -2.2174 H        1 ZINC000003826253    0.1100
39     H39    -3.1510   -0.8609   -5.3119 H        1 ZINC000003826253    0.0900
40     H40    -4.7857   -0.8625   -4.6255 H        1 ZINC000003826253    0.0900
41     H41    -4.6715    0.2358   -6.8667 H        1 ZINC000003826253    0.1100
42     H42    -5.2305    1.3461   -5.5872 H        1 ZINC000003826253    0.0900
43     H43    -2.3095    1.1106   -6.4571 H        1 ZINC000003826253    0.1300
44     H44    -3.4355    2.3311   -7.1097 H        1 ZINC000003826253    0.1400
45     H45    -0.8193    2.4876   -3.1395 H        1 ZINC000003826253    0.1100
46     H46    -0.7105    1.2883   -4.4688 H        1 ZINC000003826253    0.0800
47     H47     2.1099   -1.8943   -4.4476 H        1 ZINC000003826253    0.1600
48     H48     1.0284   -0.0850    1.1885 H        1 ZINC000003826253    0.1800
49     H49     2.3805   -0.1305    3.3345 H        1 ZINC000003826253    0.1100
50     H50     3.8834   -0.6066    2.3774 H        1 ZINC000003826253    0.1100
51     H51     3.7074    1.5380    1.0342 H        1 ZINC000003826253    0.1000
52     H52     2.2045    2.0141    1.9914 H        1 ZINC000003826253    0.1100
53     H53     4.3829   -1.2845    0.9985 H        1 ZINC000003826253    0.1800
@<TRIPOS>BOND
1     1     2     1
2     1     34    1
3     1     35    1
4     1     36    1
5     2     3     1
6     3     22    ar
7     3     4     ar
8     4     5     1
9     4     18    ar
10    5     17    1
11    5     6     1
12    6     7     1
13    6     37    1
14    6     38    1
15    7     8     1
16    7     15    1
17    7     9     1
18    9     10    1
19    9     39    1
20    9     40    1
21    10    11    1
22    10    41    1
23    10    42    1
24    11    12    1
25    11    43    1
26    11    44    1
27    12    13    1
28    12    14    1
29    12    15    1
30    15    16    1
31    15    17    1
32    17    45    1
33    17    46    1
34    18    19    1
35    18    20    ar
36    20    21    ar
37    20    47    1
38    21    32    1
39    21    22    ar
40    22    23    1
41    23    24    1
42    23    27    1
43    24    26    1
44    24    25    1
45    24    48    1
46    25    26    1
47    25    49    1
48    25    50    1
49    26    51    1
50    26    52    1
51    27    28    2
52    27    53    1
53    28    29    1
54    28    32    1
55    29    30    ar
56    29    31    ar
57    32    33    2
@<TRIPOS>SUBSTRUCTURE
1   ZINC000003826253 1     RESIDUE    1   A     ZIN   1
