@<TRIPOS>MOLECULE
ZINC000000001979
30    31    1     0     0
SMALL
USER_CHARGES
@<TRIPOS>ATOM
1      C1     -0.0187    1.5258    0.0104 C.3      1 ZINC000000001979   -0.1600
2      C2      0.0021   -0.0041    0.0020 C.3      1 ZINC000000001979   -0.1100
3      C3      0.7421   -0.5109    1.2415 C.3      1 ZINC000000001979   -0.0400
4      C4      0.7515   -2.0179    1.2346 C.ar     1 ZINC000000001979   -0.0600
5      C5      0.1499   -2.7080    0.1989 C.ar     1 ZINC000000001979   -0.1000
6      C6      0.1586   -4.0903    0.1925 C.ar     1 ZINC000000001979   -0.1200
7      C7      0.7693   -4.7825    1.2216 C.ar     1 ZINC000000001979   -0.1100
8      C8      1.3717   -4.0923    2.2568 C.ar     1 ZINC000000001979   -0.1100
9      C9      1.3667   -2.7099    2.2610 C.ar     1 ZINC000000001979   -0.1000
10     C10     2.1569   -0.0096    1.2145 C.2      1 ZINC000000001979    0.5300
11     O11     2.9617   -0.5644    0.4965 O.2      1 ZINC000000001979   -0.5100
12     N12     2.5589    1.0281    1.9550 N.am     1 ZINC000000001979   -0.7300
13     C13     1.6726    1.7728    2.8354 C.3      1 ZINC000000001979    0.3400
14     N14     0.4837    1.0129    3.1881 N.am     1 ZINC000000001979   -0.7300
15     C15     0.0364   -0.0247    2.4742 C.2      1 ZINC000000001979    0.5300
16     O16    -0.9731   -0.5924    2.8341 O.2      1 ZINC000000001979   -0.5100
17     H17     1.0039    1.9031    0.0027 H        1 ZINC000000001979    0.0600
18     H18    -0.5459    1.8868   -0.8726 H        1 ZINC000000001979    0.0700
19     H19    -0.5289    1.8773    0.9072 H        1 ZINC000000001979    0.0600
20     H20    -1.0205   -0.3814    0.0098 H        1 ZINC000000001979    0.0900
21     H21     0.5123   -0.3556   -0.8948 H        1 ZINC000000001979    0.0900
22     H22    -0.3272   -2.1673   -0.6051 H        1 ZINC000000001979    0.1300
23     H23    -0.3120   -4.6296   -0.6163 H        1 ZINC000000001979    0.1300
24     H24     0.7754   -5.8624    1.2169 H        1 ZINC000000001979    0.1300
25     H25     1.8485   -4.6330    3.0609 H        1 ZINC000000001979    0.1200
26     H26     1.8374   -2.1707    3.0697 H        1 ZINC000000001979    0.1100
27     H27     3.4892    1.2979    1.9027 H        1 ZINC000000001979    0.4200
28     H28     2.2125    2.0285    3.7471 H        1 ZINC000000001979    0.1000
29     H29     1.3692    2.6930    2.3361 H        1 ZINC000000001979    0.0800
30     H30    -0.0098    1.2723    3.9819 H        1 ZINC000000001979    0.4200
@<TRIPOS>BOND
1     1     2     1
2     1     17    1
3     1     18    1
4     1     19    1
5     2     3     1
6     2     20    1
7     2     21    1
8     3     15    1
9     3     4     1
10    3     10    1
11    4     9     ar
12    4     5     ar
13    5     6     ar
14    5     22    1
15    6     7     ar
16    6     23    1
17    7     8     ar
18    7     24    1
19    8     9     ar
20    8     25    1
21    9     26    1
22    10    11    2
23    10    12    am
24    12    13    1
25    12    27    1
26    13    14    1
27    13    28    1
28    13    29    1
29    14    15    am
30    14    30    1
31    15    16    2
@<TRIPOS>SUBSTRUCTURE
1   ZINC000000001979 1     RESIDUE    1   A     ZIN   1
