@<TRIPOS>MOLECULE
ZINC000005133329
13    13    1     0     0
SMALL
USER_CHARGES
@<TRIPOS>ATOM
1      O1     -0.0164    1.3548    0.0095 O.3      1 ZINC000005133329   -0.5000
2      C2      0.0021   -0.0041    0.0020 C.ar     1 ZINC000005133329    0.1000
3      C3      0.0058   -0.6923   -1.2026 C.ar     1 ZINC000005133329   -0.1500
4      C4      0.0251   -2.0736   -1.2075 C.ar     1 ZINC000005133329   -0.1000
5      C5      0.0401   -2.7702   -0.0132 C.ar     1 ZINC000005133329   -0.1300
6      C6      0.0359   -2.0866    1.1886 C.ar     1 ZINC000005133329   -0.1000
7      C7      0.0230   -0.7053    1.1989 C.ar     1 ZINC000005133329   -0.1500
8      H8      0.8616    1.7601    0.0033 H        1 ZINC000005133329    0.3900
9      H9     -0.0066   -0.1486   -2.1357 H        1 ZINC000005133329    0.1300
10     H10     0.0280   -2.6098   -2.1449 H        1 ZINC000005133329    0.1300
11     H11     0.0548   -3.8501   -0.0192 H        1 ZINC000005133329    0.1300
12     H12     0.0473   -2.6330    2.1202 H        1 ZINC000005133329    0.1300
13     H13     0.0197   -0.1718    2.1379 H        1 ZINC000005133329    0.1300
@<TRIPOS>BOND
1     1     2     1
2     1     8     1
3     2     7     ar
4     2     3     ar
5     3     4     ar
6     3     9     1
7     4     5     ar
8     4     10    1
9     5     6     ar
10    5     11    1
11    6     7     ar
12    6     12    1
13    7     13    1
@<TRIPOS>SUBSTRUCTURE
1   ZINC000005133329 1     RESIDUE    1   A     ZIN   1
