@<TRIPOS>MOLECULE
ZINC000000895048
14   13    0    0    0
SMALL
USER_CHARGES
NO_NAME
@<TRIPOS>ATOM
1 O1       -0.0173     1.4248     0.0099 O.3    1 <0>      -0.5600
2 C2        0.0021    -0.0041     0.0020 C.3    1 <0>       0.0500
3 C3       -1.4333    -0.5336     0.0129 C.3    1 <0>       0.1000
4 O4       -2.0889    -0.1578    -1.2000 O.3    1 <0>      -0.5400
5 C5       -1.4133    -2.0590     0.1302 C.3    1 <0>       0.0500
6 O6       -2.7512    -2.5446     0.2575 O.3    1 <0>      -0.5600
7 H7        0.8606     1.8301     0.0037 H      1 <0>       0.3800
8 H8        0.5123    -0.3556    -0.8948 H      1 <0>       0.0500
9 H9        0.5293    -0.3651     0.8851 H      1 <0>       0.0600
10 H10      -1.9701    -0.1109     0.8621 H      1 <0>       0.1100
11 H11      -1.6646    -0.4999    -1.9987 H      1 <0>       0.3700
12 H12      -0.9551    -2.4861    -0.7619 H      1 <0>       0.0500
13 H13      -0.8366    -2.3483     1.0088 H      1 <0>       0.0600
14 H14      -2.8147    -3.5062     0.3366 H      1 <0>       0.3800
@<TRIPOS>BOND
1    1    2 1
2    1    7 1
3    2    3 1
4    2    8 1
5    2    9 1
6    3    4 1
7    3    5 1
8    3   10 1
9    4   11 1
10    5    6 1
11    5   12 1
12    5   13 1
13    6   14 1
