@<TRIPOS>MOLECULE
ZINC000000621893
55    57    1     0     0
SMALL
USER_CHARGES
@<TRIPOS>ATOM
1      C1     -0.1523    1.4142    0.0846 C.3      1 ZINC000000621893    0.0300
2      O2      0.0021   -0.0040    0.0020 O.3      1 ZINC000000621893   -0.3200
3      C3      0.6258   -0.6183    1.0415 C.ar     1 ZINC000000621893    0.1400
4      C4      1.0749    0.1278    2.1214 C.ar     1 ZINC000000621893   -0.2100
5      C5      1.7082   -0.4990    3.1771 C.ar     1 ZINC000000621893   -0.0500
6      C6      1.8951   -1.8688    3.1577 C.ar     1 ZINC000000621893   -0.1100
7      C7      2.5867   -2.5500    4.3104 C.3      1 ZINC000000621893   -0.0100
8      H8      3.0527   -1.8048    4.9551 H        1 ZINC000000621893    0.1200
9      S9      3.8522   -3.7022    3.6801 S.3      1 ZINC000000621893   -0.0900
10     C10     4.1171   -4.7670    5.0604 C.ar     1 ZINC000000621893   -0.1500
11     C11     5.2822   -4.6778    5.8049 C.ar     1 ZINC000000621893   -0.0500
12     C12     5.4733   -5.5253    6.8818 C.ar     1 ZINC000000621893   -0.1300
13     C13     4.5082   -6.4579    7.2142 C.ar     1 ZINC000000621893   -0.0700
14     C14     3.3422   -6.5509    6.4745 C.ar     1 ZINC000000621893   -0.1300
15     C15     3.1426   -5.7037    5.3976 C.ar     1 ZINC000000621893    0.1700
16     N16     1.9596   -5.7725    4.6448 N.am     1 ZINC000000621893   -0.5500
17     C17     1.4970   -7.0604    4.1219 C.3      1 ZINC000000621893    0.1200
18     C18     0.5797   -7.7279    5.1484 C.3      1 ZINC000000621893    0.0400
19     N19     0.1159   -9.0193    4.6241 N.3      1 ZINC000000621893   -0.5400
20     C20     1.2328   -9.9637    4.4872 C.3      1 ZINC000000621893    0.0200
21     C21    -0.9468   -9.5797    5.4694 C.3      1 ZINC000000621893    0.0300
22     C22     1.2549   -4.6598    4.4050 C.2      1 ZINC000000621893    0.5200
23     O23     0.3477   -4.6897    3.6004 O.2      1 ZINC000000621893   -0.4900
24     C24     1.5696   -3.3749    5.1160 C.3      1 ZINC000000621893    0.0800
25     H25     1.9859   -3.5999    6.0979 H        1 ZINC000000621893    0.1100
26     O26     0.3489   -2.6056    5.2781 O.3      1 ZINC000000621893   -0.3100
27     C27    -0.3602   -2.8167    6.3981 C.2      1 ZINC000000621893    0.4600
28     C28    -1.6385   -2.0545    6.6354 C.3      1 ZINC000000621893   -0.1400
29     O29     0.0263   -3.6177    7.2159 O.2      1 ZINC000000621893   -0.5100
30     C30     1.4481   -2.6148    2.0828 C.ar     1 ZINC000000621893   -0.0400
31     C31     0.8095   -1.9934    1.0271 C.ar     1 ZINC000000621893   -0.1500
32     H32     0.8292    1.8830    0.1556 H        1 ZINC000000621893    0.0600
33     H33    -0.6643    1.7765   -0.8068 H        1 ZINC000000621893    0.1000
34     H34    -0.7394    1.6650    0.9680 H        1 ZINC000000621893    0.0600
35     H35     0.9297    1.1979    2.1367 H        1 ZINC000000621893    0.1300
36     H36     2.0579    0.0814    4.0180 H        1 ZINC000000621893    0.1300
37     H37     6.0375   -3.9506    5.5458 H        1 ZINC000000621893    0.1400
38     H38     6.3800   -5.4584    7.4648 H        1 ZINC000000621893    0.1400
39     H39     4.6652   -7.1173    8.0550 H        1 ZINC000000621893    0.1400
40     H40     2.5909   -7.2813    6.7363 H        1 ZINC000000621893    0.1300
41     H41     0.9479   -6.8998    3.1941 H        1 ZINC000000621893    0.1100
42     H42     2.3555   -7.7038    3.9292 H        1 ZINC000000621893    0.0900
43     H43     1.1288   -7.8885    6.0762 H        1 ZINC000000621893    0.0400
44     H44    -0.2788   -7.0845    5.3411 H        1 ZINC000000621893    0.0800
45     H45     1.6921  -10.1270    5.4622 H        1 ZINC000000621893    0.0300
46     H46     0.8615  -10.9114    4.0972 H        1 ZINC000000621893    0.0700
47     H47     1.9734   -9.5534    3.8008 H        1 ZINC000000621893    0.0700
48     H48    -1.7906   -8.8903    5.4970 H        1 ZINC000000621893    0.0700
49     H49    -1.2718  -10.5356    5.0586 H        1 ZINC000000621893    0.0700
50     H50    -0.5664   -9.7291    6.4799 H        1 ZINC000000621893    0.0300
51     H51    -2.4768   -2.6119    6.2174 H        1 ZINC000000621893    0.1100
52     H52    -1.7887   -1.9217    7.7068 H        1 ZINC000000621893    0.1100
53     H53    -1.5745   -1.0788    6.1538 H        1 ZINC000000621893    0.1000
54     H54     1.5949   -3.6847    2.0702 H        1 ZINC000000621893    0.1400
55     H55     0.4605   -2.5765    0.1877 H        1 ZINC000000621893    0.1300
@<TRIPOS>BOND
1     1     2     1
2     1     32    1
3     1     33    1
4     1     34    1
5     2     3     1
6     3     31    ar
7     3     4     ar
8     4     5     ar
9     4     35    1
10    5     6     ar
11    5     36    1
12    6     7     1
13    6     30    ar
14    7     8     1
15    7     24    1
16    7     9     1
17    9     10    1
18    10    15    ar
19    10    11    ar
20    11    12    ar
21    11    37    1
22    12    13    ar
23    12    38    1
24    13    14    ar
25    13    39    1
26    14    15    ar
27    14    40    1
28    15    16    1
29    16    17    1
30    16    22    am
31    17    18    1
32    17    41    1
33    17    42    1
34    18    19    1
35    18    43    1
36    18    44    1
37    19    20    1
38    19    21    1
39    20    45    1
40    20    46    1
41    20    47    1
42    21    48    1
43    21    49    1
44    21    50    1
45    22    23    2
46    22    24    1
47    24    25    1
48    24    26    1
49    26    27    1
50    27    28    1
51    27    29    2
52    28    51    1
53    28    52    1
54    28    53    1
55    30    31    ar
56    30    54    1
57    31    55    1
@<TRIPOS>SUBSTRUCTURE
1   ZINC000000621893 1     RESIDUE    1   A     ZIN   1
