@<TRIPOS>MOLECULE
ZINC000019796158
42   45    0    0    0
SMALL
USER_CHARGES
NO_NAME
@<TRIPOS>ATOM
1 C1       -2.8014    -1.2350     0.4227 C.3    1 <0>      -0.0500
2 N2       -1.3513    -1.3167     0.2026 N.4    1 <0>      -0.3900
3 H3       -0.9880    -0.3938     0.0171 H      1 <0>       0.4300
4 C4       -1.0810    -2.1877    -0.9482 C.3    1 <0>      -0.0200
5 C5        0.4213    -2.1827    -1.2495 C.3    1 <0>       0.0800
6 N6        1.1441    -2.5548    -0.0235 N.pl3  1 <0>      -0.6200
7 C7        2.1012    -3.5439    -0.0386 C.2    1 <0>       0.4900
8 N8        2.5918    -3.9092     1.0949 N.2    1 <0>      -0.5600
9 C9        3.5580    -4.8468     1.3048 C.ar   1 <0>       0.1100
10 C10       4.5383    -4.6022     2.2712 C.ar   1 <0>      -0.0900
11 C11       5.5116    -5.5474     2.5270 C.ar   1 <0>      -0.1000
12 C12       5.5208    -6.7412     1.8309 C.ar   1 <0>      -0.1100
13 C13       4.5620    -6.9892     0.8634 C.ar   1 <0>      -0.1000
14 C14       3.5890    -6.0440     0.5863 C.ar   1 <0>       0.0400
15 O15       2.7052    -6.2847    -0.4165 O.3    1 <0>      -0.2600
16 C16       2.7320    -5.4649    -1.4959 C.ar   1 <0>       0.1500
17 C17       3.0161    -5.9816    -2.7488 C.ar   1 <0>      -0.1100
18 C18       3.0731    -5.1445    -3.8485 C.ar   1 <0>      -0.0600
19 C19       2.8482    -3.7864    -3.7036 C.ar   1 <0>      -0.0500
20 Cl20      2.9378    -2.7423    -5.0876 Cl     1 <0>      -0.0400
21 C21       2.5524    -3.2590    -2.4617 C.ar   1 <0>      -0.0800
22 C22       2.4755    -4.1012    -1.3478 C.ar   1 <0>      -0.1500
23 C23       0.8153    -1.8394     1.2192 C.3    1 <0>       0.1000
24 C24      -0.7058    -1.8626     1.4032 C.3    1 <0>      -0.0200
25 H25      -3.1952    -2.2314     0.6233 H      1 <0>       0.1200
26 H26      -3.0036    -0.5861     1.2748 H      1 <0>       0.1300
27 H27      -3.2815    -0.8269    -0.4668 H      1 <0>       0.1300
28 H28      -1.4022    -3.2036    -0.7185 H      1 <0>       0.1300
29 H29      -1.6273    -1.8215    -1.8174 H      1 <0>       0.1500
30 H30       0.6394    -2.9045    -2.0366 H      1 <0>       0.1400
31 H31       0.7278    -1.1861    -1.5673 H      1 <0>       0.1000
32 H32       4.5343    -3.6714     2.8189 H      1 <0>       0.1400
33 H33       6.2682    -5.3530     3.2728 H      1 <0>       0.1400
34 H34       6.2776    -7.4822     2.0419 H      1 <0>       0.1400
35 H35       4.5734    -7.9238     0.3222 H      1 <0>       0.1400
36 H36       3.1940    -7.0403    -2.8675 H      1 <0>       0.1600
37 H37       3.2942    -5.5521    -4.8239 H      1 <0>       0.1500
38 H38       2.3784    -2.1988    -2.3525 H      1 <0>       0.1500
39 H39       1.2939    -2.3342     2.0643 H      1 <0>       0.1400
40 H40       1.1616    -0.8081     1.1508 H      1 <0>       0.0900
41 H41      -0.9767    -1.2556     2.2671 H      1 <0>       0.1400
42 H42      -1.0372    -2.8888     1.5617 H      1 <0>       0.1300
@<TRIPOS>BOND
1    1    2 1
2    1   25 1
3    1   26 1
4    1   27 1
5    2    3 1
6    2   24 1
7    2    4 1
8    4    5 1
9    4   28 1
10    4   29 1
11    5    6 1
12    5   30 1
13    5   31 1
14    6    7 1
15    6   23 1
16    7   22 1
17    7    8 2
18    8    9 1
19    9   14 ar
20    9   10 ar
21   10   11 ar
22   10   32 1
23   11   12 ar
24   11   33 1
25   12   13 ar
26   12   34 1
27   13   14 ar
28   13   35 1
29   14   15 1
30   15   16 1
31   16   22 ar
32   16   17 ar
33   17   18 ar
34   17   36 1
35   18   19 ar
36   18   37 1
37   19   20 1
38   19   21 ar
39   21   22 ar
40   21   38 1
41   23   24 1
42   23   39 1
43   23   40 1
44   24   41 1
45   24   42 1
