@<TRIPOS>MOLECULE
ZINC000001842633
41   42    0    0    0
SMALL
USER_CHARGES
NO_NAME
@<TRIPOS>ATOM
1 C1        0.6185     1.6081     0.4146 C.3    1 <0>      -0.0500
2 N2        0.4024     0.1628     0.2656 N.4    1 <0>      -0.5100
3 H3        0.8395    -0.3236     1.0340 H      1 <0>       0.4300
4 H4       -0.5878    -0.0309     0.2646 H      1 <0>       0.4300
5 C5        0.9916    -0.2924    -1.0007 C.3    1 <0>      -0.0100
6 C6        0.7666    -1.7978    -1.1560 C.3    1 <0>      -0.1400
7 C7        1.3803    -2.2719    -2.4748 C.3    1 <0>       0.1400
8 H8        0.9724    -1.6844    -3.2974 H      1 <0>       0.0900
9 O9        2.7987    -2.1046    -2.4276 O.3    1 <0>      -0.3100
10 C10       3.4451    -1.9795    -3.6164 C.ar   1 <0>       0.1200
11 C11       2.7477    -2.1313    -4.8058 C.ar   1 <0>      -0.2000
12 C12       3.4072    -2.0031    -6.0131 C.ar   1 <0>      -0.0900
13 C13       4.7610    -1.7242    -6.0364 C.ar   1 <0>      -0.1400
14 C14       5.4586    -1.5728    -4.8520 C.ar   1 <0>      -0.0800
15 C15       4.8027    -1.6939    -3.6425 C.ar   1 <0>      -0.1100
16 C16       5.5635    -1.5283    -2.3522 C.3    1 <0>      -0.1100
17 C17       1.0529    -3.7276    -2.6866 C.ar   1 <0>      -0.1300
18 C18       1.7815    -4.7024    -2.0309 C.ar   1 <0>      -0.0900
19 C19       1.4813    -6.0377    -2.2252 C.ar   1 <0>      -0.1200
20 C20       0.4521    -6.3982    -3.0748 C.ar   1 <0>      -0.1000
21 C21      -0.2770    -5.4234    -3.7297 C.ar   1 <0>      -0.1200
22 C22       0.0204    -4.0880    -3.5322 C.ar   1 <0>      -0.1100
23 H23       1.6882     1.8174     0.4157 H      1 <0>       0.1200
24 H24       0.1463     2.1336    -0.4155 H      1 <0>       0.1200
25 H25       0.1813     1.9459     1.3542 H      1 <0>       0.1300
26 H26       0.5195     0.2330    -1.8308 H      1 <0>       0.1300
27 H27       2.0614    -0.0832    -0.9997 H      1 <0>       0.1400
28 H28       1.2388    -2.3233    -0.3259 H      1 <0>       0.1000
29 H29      -0.3031    -2.0071    -1.1570 H      1 <0>       0.1100
30 H30       1.6902    -2.3499    -4.7881 H      1 <0>       0.1300
31 H31       2.8646    -2.1212    -6.9394 H      1 <0>       0.1300
32 H32       5.2747    -1.6247    -6.9812 H      1 <0>       0.1300
33 H33       6.5163    -1.3553    -4.8729 H      1 <0>       0.1300
34 H34       5.5436    -0.4811    -2.0505 H      1 <0>       0.0700
35 H35       5.1007    -2.1387    -1.5767 H      1 <0>       0.0700
36 H36       6.5963    -1.8454    -2.4961 H      1 <0>       0.0700
37 H37       2.5856    -4.4207    -1.3672 H      1 <0>       0.1300
38 H38       2.0510    -6.7992    -1.7135 H      1 <0>       0.1300
39 H39       0.2180    -7.4414    -3.2271 H      1 <0>       0.1300
40 H40      -1.0809    -5.7051    -4.3937 H      1 <0>       0.1300
41 H41      -0.5493    -3.3264    -4.0439 H      1 <0>       0.1200
@<TRIPOS>BOND
1    1    2 1
2    1   23 1
3    1   24 1
4    1   25 1
5    2    3 1
6    2    4 1
7    2    5 1
8    5    6 1
9    5   26 1
10    5   27 1
11    6    7 1
12    6   28 1
13    6   29 1
14    7    8 1
15    7    9 1
16    7   17 1
17    9   10 1
18   10   15 ar
19   10   11 ar
20   11   12 ar
21   11   30 1
22   12   13 ar
23   12   31 1
24   13   14 ar
25   13   32 1
26   14   15 ar
27   14   33 1
28   15   16 1
29   16   34 1
30   16   35 1
31   16   36 1
32   17   22 ar
33   17   18 ar
34   18   19 ar
35   18   37 1
36   19   20 ar
37   19   38 1
38   20   21 ar
39   20   39 1
40   21   22 ar
41   21   40 1
42   22   41 1
