@<TRIPOS>MOLECULE
ZINC000029571072
87    91    1     0     0
SMALL
USER_CHARGES
@<TRIPOS>ATOM
1      C1      9.3391   -4.5399    0.3939 C.3      1 ZINC000029571072   -0.0500
2      N2      8.1243   -5.3239    0.1337 N.4      1 ZINC000029571072   -0.5000
3      H3      8.3193   -6.3035    0.2762 H        1 ZINC000029571072    0.4400
4      H4      7.3935   -5.0312    0.7649 H        1 ZINC000029571072    0.4400
5      C5      7.6896   -5.1078   -1.2527 C.3      1 ZINC000029571072    0.0000
6      C6      6.4434   -5.9120   -1.5196 C.2      1 ZINC000029571072    0.4600
7      O7      5.9664   -6.5952   -0.6446 O.2      1 ZINC000029571072   -0.5000
8      O8      5.8634   -5.8695   -2.7294 O.3      1 ZINC000029571072   -0.3300
9      C9      4.6660   -6.6696   -2.9148 C.3      1 ZINC000029571072    0.1300
10     C10     4.1597   -6.4969   -4.3237 C.ar     1 ZINC000029571072   -0.1400
11     C11     4.7662   -5.5964   -5.1812 C.ar     1 ZINC000029571072   -0.0500
12     C12     4.2669   -5.4703   -6.4706 C.ar     1 ZINC000029571072   -0.1500
13     C13     3.1884   -6.2412   -6.8562 C.ar     1 ZINC000029571072    0.1300
14     N14     2.6302   -7.0920   -6.0164 N.ar     1 ZINC000029571072   -0.4700
15     C15     3.0804   -7.2447   -4.7812 C.ar     1 ZINC000029571072    0.3600
16     N16     2.4599   -8.1555   -3.9275 N.am     1 ZINC000029571072   -0.5400
17     C17     1.2850   -7.7495   -3.1523 C.3      1 ZINC000029571072    0.0800
18     C18     2.9409   -9.4095   -3.8155 C.2      1 ZINC000029571072    0.6700
19     O19     3.9153   -9.7462   -4.4584 O.2      1 ZINC000029571072   -0.5400
20     O20     2.3416  -10.2892   -2.9910 O.3      1 ZINC000029571072   -0.3600
21     C21     2.9137  -11.6218   -2.9205 C.3      1 ZINC000029571072    0.3200
22     H22     3.9860  -11.5673   -3.1084 H        1 ZINC000029571072    0.1500
23     C23     2.2562  -12.5156   -3.9739 C.3      1 ZINC000029571072   -0.1900
24     N24     2.6794  -12.1840   -1.5881 N.pl3    1 ZINC000029571072   -0.4300
25     C25     3.5459  -12.8880   -0.9059 C.cat    1 ZINC000029571072    0.3400
26     N26     2.9782  -13.2280    0.2642 N.pl3    1 ZINC000029571072   -0.3000
27     C27     3.5860  -14.0171    1.3385 C.3      1 ZINC000029571072    0.0900
28     C28     3.5224  -13.2294    2.6486 C.3      1 ZINC000029571072    0.1800
29     O29     2.1574  -13.0547    3.0336 O.3      1 ZINC000029571072   -0.5100
30     C30     4.1664  -11.8806    2.4555 C.ar     1 ZINC000029571072   -0.1300
31     C31     5.3969  -11.7852    1.8346 C.ar     1 ZINC000029571072   -0.1300
32     C32     5.9889  -10.5459    1.6576 C.ar     1 ZINC000029571072    0.0900
33     F33     7.1924  -10.4526    1.0509 F        1 ZINC000029571072   -0.1300
34     C34     5.3472   -9.4026    2.1019 C.ar     1 ZINC000029571072   -0.1000
35     C35     4.1161   -9.4980    2.7226 C.ar     1 ZINC000029571072   -0.1300
36     C36     3.5222  -10.7365    2.8953 C.ar     1 ZINC000029571072    0.1600
37     F37     2.3187  -10.8298    3.5020 F        1 ZINC000029571072   -0.1000
38     C38     4.2665  -13.9979    3.7425 C.3      1 ZINC000029571072   -0.0300
39     H39     3.8205  -14.9854    3.8603 H        1 ZINC000029571072    0.1300
40     C40     5.7380  -14.1464    3.3505 C.3      1 ZINC000029571072   -0.1700
41     C41     4.1668  -13.2433    5.0431 C.2      1 ZINC000029571072    0.0600
42     N42     3.6388  -13.7073    6.1218 N.2      1 ZINC000029571072   -0.4400
43     C43     3.6313  -12.9114    7.1822 C.2      1 ZINC000029571072    0.1100
44     C44     3.0578  -13.3127    8.4878 C.ar     1 ZINC000029571072    0.0000
45     C45     2.5921  -14.6153    8.6741 C.ar     1 ZINC000029571072   -0.0900
46     C46     2.0610  -14.9880    9.8821 C.ar     1 ZINC000029571072   -0.0700
47     C47     1.9860  -14.0625   10.9275 C.ar     1 ZINC000029571072   -0.0100
48     C48     1.4320  -14.4506   12.1897 C.1      1 ZINC000029571072    0.2400
49     N49     0.9925  -14.7584   13.1910 N.1      1 ZINC000029571072   -0.4000
50     C50     2.4528  -12.7581   10.7396 C.ar     1 ZINC000029571072   -0.0700
51     C51     2.9887  -12.3895    9.5325 C.ar     1 ZINC000029571072   -0.1000
52     C52     4.1928  -11.7030    6.9663 C.2      1 ZINC000029571072   -0.2400
53     S53     4.7454  -11.6548    5.2942 S.3      1 ZINC000029571072    0.1300
54     N54     1.6866  -12.6765    0.2522 N.2      1 ZINC000029571072   -0.2000
55     C55     1.5542  -12.0499   -0.8873 C.2      1 ZINC000029571072    0.2600
56     H56    10.1285   -4.8561   -0.2879 H        1 ZINC000029571072    0.1300
57     H57     9.1284   -3.4816    0.2399 H        1 ZINC000029571072    0.1300
58     H58     9.6616   -4.7002    1.4226 H        1 ZINC000029571072    0.1400
59     H59     7.4789   -4.0495   -1.4067 H        1 ZINC000029571072    0.1800
60     H60     8.4791   -5.4240   -1.9345 H        1 ZINC000029571072    0.1800
61     H61     4.8997   -7.7196   -2.7389 H        1 ZINC000029571072    0.0900
62     H62     3.8996   -6.3450   -2.2110 H        1 ZINC000029571072    0.1000
63     H63     5.6086   -5.0046   -4.8549 H        1 ZINC000029571072    0.1500
64     H64     4.7173   -4.7761   -7.1647 H        1 ZINC000029571072    0.1600
65     H65     2.7963   -6.1463   -7.8581 H        1 ZINC000029571072    0.1800
66     H66     0.3798   -8.0363   -3.6875 H        1 ZINC000029571072    0.0800
67     H67     1.3035   -8.2417   -2.1799 H        1 ZINC000029571072    0.0900
68     H68     1.2976   -6.6686   -3.0126 H        1 ZINC000029571072    0.0900
69     H69     2.4305  -12.0973   -4.9653 H        1 ZINC000029571072    0.1100
70     H70     2.6857  -13.5160   -3.9210 H        1 ZINC000029571072    0.1000
71     H71     1.1839  -12.5701   -3.7860 H        1 ZINC000029571072    0.0900
72     H72     4.5430  -13.1505   -1.2270 H        1 ZINC000029571072    0.2700
73     H73     3.0430  -14.9554    1.4520 H        1 ZINC000029571072    0.1500
74     H74     4.6265  -14.2272    1.0910 H        1 ZINC000029571072    0.1400
75     H75     1.6796  -13.8834    3.1755 H        1 ZINC000029571072    0.3900
76     H76     5.8974  -12.6771    1.4877 H        1 ZINC000029571072    0.1500
77     H77     5.8089   -8.4361    1.9639 H        1 ZINC000029571072    0.1500
78     H78     3.6157   -8.6061    3.0695 H        1 ZINC000029571072    0.1500
79     H79     6.2431  -14.7887    4.0718 H        1 ZINC000029571072    0.0900
80     H80     5.8065  -14.5909    2.3576 H        1 ZINC000029571072    0.0700
81     H81     6.2127  -13.1652    3.3428 H        1 ZINC000029571072    0.0700
82     H82     2.6498  -15.3299    7.8664 H        1 ZINC000029571072    0.1400
83     H83     1.7004  -15.9958   10.0259 H        1 ZINC000029571072    0.1400
84     H84     2.3955  -12.0423   11.5463 H        1 ZINC000029571072    0.1400
85     H85     3.3493  -11.3819    9.3871 H        1 ZINC000029571072    0.1300
86     H86     4.2896  -10.9082    7.6911 H        1 ZINC000029571072    0.1800
87     H87     0.6731  -11.5157   -1.2110 H        1 ZINC000029571072    0.2600
@<TRIPOS>BOND
1     1     2     1
2     1     56    1
3     1     57    1
4     1     58    1
5     2     3     1
6     2     4     1
7     2     5     1
8     5     6     1
9     5     59    1
10    5     60    1
11    6     7     2
12    6     8     1
13    8     9     1
14    9     10    1
15    9     61    1
16    9     62    1
17    10    15    ar
18    10    11    ar
19    11    12    ar
20    11    63    1
21    12    13    ar
22    12    64    1
23    13    14    ar
24    13    65    1
25    14    15    ar
26    15    16    1
27    16    17    1
28    16    18    am
29    17    66    1
30    17    67    1
31    17    68    1
32    18    19    2
33    18    20    1
34    20    21    1
35    21    22    1
36    21    23    1
37    21    24    1
38    23    69    1
39    23    70    1
40    23    71    1
41    24    55    1
42    24    25    ar
43    25    26    ar
44    25    72    1
45    26    27    1
46    26    54    1
47    27    28    1
48    27    73    1
49    27    74    1
50    28    29    1
51    28    30    1
52    28    38    1
53    29    75    1
54    30    36    ar
55    30    31    ar
56    31    32    ar
57    31    76    1
58    32    33    1
59    32    34    ar
60    34    35    ar
61    34    77    1
62    35    36    ar
63    35    78    1
64    36    37    1
65    38    39    1
66    38    40    1
67    38    41    1
68    40    79    1
69    40    80    1
70    40    81    1
71    41    53    1
72    41    42    2
73    42    43    1
74    43    44    1
75    43    52    2
76    44    51    ar
77    44    45    ar
78    45    46    ar
79    45    82    1
80    46    47    ar
81    46    83    1
82    47    48    1
83    47    50    ar
84    48    49    3
85    50    51    ar
86    50    84    1
87    51    85    1
88    52    53    1
89    52    86    1
90    54    55    2
91    55    87    1
@<TRIPOS>SUBSTRUCTURE
1   ZINC000029571072 1     RESIDUE    1   A     ZIN   1
