@<TRIPOS>MOLECULE
ZINC000000895316
13   12    0    0    0
SMALL
USER_CHARGES
NO_NAME
@<TRIPOS>ATOM
1 C1       -0.0187     1.5258     0.0104 C.3    1 <0>      -0.1800
2 C2        0.0021    -0.0041     0.0020 C.3    1 <0>       0.1000
3 H3       -1.0205    -0.3814     0.0098 H      1 <0>       0.0700
4 O4        0.6932    -0.4774     1.1597 O.3    1 <0>      -0.5600
5 C5        0.7182    -0.4975    -1.2568 C.3    1 <0>       0.0800
6 O6        2.0188     0.0904    -1.3262 O.3    1 <0>      -0.5600
7 H7        1.0039     1.9031     0.0027 H      1 <0>       0.0700
8 H8       -0.5459     1.8868    -0.8726 H      1 <0>       0.0600
9 H9       -0.5289     1.8773     0.9072 H      1 <0>       0.0600
10 H10       0.2938    -0.2021     1.9962 H      1 <0>       0.3800
11 H11       0.8116    -1.5829    -1.2198 H      1 <0>       0.0500
12 H12       0.1430    -0.2121    -2.1375 H      1 <0>       0.0600
13 H13       2.5311    -0.1785    -2.1011 H      1 <0>       0.3800
@<TRIPOS>BOND
1    1    2 1
2    1    7 1
3    1    8 1
4    1    9 1
5    2    3 1
6    2    4 1
7    2    5 1
8    4   10 1
9    5    6 1
10    5   11 1
11    5   12 1
12    6   13 1
