@<TRIPOS>MOLECULE
ZINC000018324776
67    70    1     0     0
SMALL
USER_CHARGES
@<TRIPOS>ATOM
1      C1     -0.0187    1.5258    0.0104 C.3      1 ZINC000018324776   -0.1500
2      C2      0.0021   -0.0041    0.0020 C.3      1 ZINC000018324776   -0.1100
3      C3     -1.4333   -0.5336    0.0129 C.3      1 ZINC000018324776   -0.0400
4      C4     -1.4129   -2.0405    0.0046 C.2      1 ZINC000018324776    0.3000
5      N5     -1.4071   -2.7929   -1.0707 N.2      1 ZINC000018324776   -0.4700
6      C6     -1.3882   -4.0800   -0.7214 C.2      1 ZINC000018324776    0.1400
7      C7     -1.3753   -5.2593   -1.6596 C.3      1 ZINC000018324776   -0.0800
8      C8     -1.3818   -4.1323    0.6504 C.2      1 ZINC000018324776   -0.1700
9      C9     -1.3631   -5.2078    1.6407 C.2      1 ZINC000018324776    0.6000
10     O10    -1.3482   -6.3752    1.2953 O.2      1 ZINC000018324776   -0.4800
11     N11    -1.3622   -4.8714    2.9503 N.am     1 ZINC000018324776   -0.6700
12     C12    -1.3791   -3.5452    3.3322 C.2      1 ZINC000018324776    0.4100
13     C13    -1.3781   -3.2200    4.7735 C.ar     1 ZINC000018324776   -0.1100
14     C14    -1.3545   -4.2420    5.7230 C.ar     1 ZINC000018324776    0.0500
15     C15    -1.3537   -3.9321    7.0672 C.ar     1 ZINC000018324776   -0.7300
16     S16    -1.3239   -5.2238    8.2653 S.o2     1 ZINC000018324776    2.6900
17     O17    -1.8727   -4.6783    9.4572 O.2      1 ZINC000018324776   -0.9300
18     O18    -1.8502   -6.3777    7.6245 O.2      1 ZINC000018324776   -0.9300
19     N19     0.2659   -5.5538    8.5910 N.am     1 ZINC000018324776   -1.0100
20     C20     1.0052   -6.5580    7.8105 C.3      1 ZINC000018324776    0.1000
21     C21     2.3199   -5.9315    7.3342 C.3      1 ZINC000018324776   -0.0200
22     N22     3.0546   -5.4004    8.4892 N.4      1 ZINC000018324776   -0.3800
23     H23     3.1906   -6.1356    9.1668 H        1 ZINC000018324776    0.4300
24     C24     4.3618   -4.8970    8.0465 C.3      1 ZINC000018324776   -0.0100
25     C25     5.1781   -4.4580    9.2638 C.3      1 ZINC000018324776   -0.1900
26     C26     2.2950   -4.3047    9.1044 C.3      1 ZINC000018324776   -0.0300
27     C27     0.9806   -4.8466    9.6648 C.3      1 ZINC000018324776    0.1000
28     C28    -1.3757   -2.6107    7.4787 C.ar     1 ZINC000018324776    0.0500
29     C29    -1.3992   -1.5896    6.5478 C.ar     1 ZINC000018324776   -0.2300
30     C30    -1.3950   -1.8840    5.1938 C.ar     1 ZINC000018324776    0.2500
31     O31    -1.4180   -0.8816    4.2782 O.3      1 ZINC000018324776   -0.2700
32     C32    -1.4461    0.4557    4.7810 C.3      1 ZINC000018324776    0.0400
33     C33    -1.4691    1.4404    3.6101 C.3      1 ZINC000018324776   -0.1600
34     N34    -1.3955   -2.5701    2.4696 N.2      1 ZINC000018324776   -0.2600
35     N35    -1.3919   -2.8210    1.0946 N.pl3    1 ZINC000018324776   -0.2900
36     H36     1.0039    1.9031    0.0027 H        1 ZINC000018324776    0.0600
37     H37    -0.5459    1.8868   -0.8726 H        1 ZINC000018324776    0.0600
38     H38    -0.5289    1.8773    0.9072 H        1 ZINC000018324776    0.0600
39     H39     0.5123   -0.3556   -0.8948 H        1 ZINC000018324776    0.0700
40     H40     0.5293   -0.3651    0.8851 H        1 ZINC000018324776    0.0600
41     H41    -1.9435   -0.1821    0.9097 H        1 ZINC000018324776    0.0900
42     H42    -1.9605   -0.1726   -0.8702 H        1 ZINC000018324776    0.1000
43     H43    -0.3447   -5.5292   -1.8898 H        1 ZINC000018324776    0.0800
44     H44    -1.8755   -6.1047   -1.1873 H        1 ZINC000018324776    0.0800
45     H45    -1.8965   -4.9968   -2.5803 H        1 ZINC000018324776    0.0800
46     H46    -1.3500   -5.5670    3.6261 H        1 ZINC000018324776    0.4200
47     H47    -1.3373   -5.2743    5.4061 H        1 ZINC000018324776    0.1500
48     H48     1.2180   -7.4244    8.4367 H        1 ZINC000018324776    0.1100
49     H49     0.4111   -6.8622    6.9488 H        1 ZINC000018324776    0.1400
50     H50     2.9243   -6.6896    6.8362 H        1 ZINC000018324776    0.1500
51     H51     2.1049   -5.1220    6.6366 H        1 ZINC000018324776    0.1300
52     H52     4.8949   -5.6867    7.5171 H        1 ZINC000018324776    0.1300
53     H53     4.2169   -4.0466    7.3802 H        1 ZINC000018324776    0.1300
54     H54     4.6450   -3.6684    9.7932 H        1 ZINC000018324776    0.0800
55     H55     5.3230   -5.3085    9.9300 H        1 ZINC000018324776    0.0800
56     H56     6.1480   -4.0845    8.9352 H        1 ZINC000018324776    0.1100
57     H57     2.8811   -3.8641    9.9109 H        1 ZINC000018324776    0.1500
58     H58     2.0808   -3.5444    8.3533 H        1 ZINC000018324776    0.1300
59     H59     0.3705   -4.0209   10.0310 H        1 ZINC000018324776    0.1400
60     H60     1.1882   -5.5415   10.4785 H        1 ZINC000018324776    0.1100
61     H61    -1.3749   -2.3764    8.5330 H        1 ZINC000018324776    0.1500
62     H62    -1.4167   -0.5608    6.8760 H        1 ZINC000018324776    0.1500
63     H63    -2.3383    0.5959    5.3912 H        1 ZINC000018324776    0.0700
64     H64    -0.5588    0.6342    5.3884 H        1 ZINC000018324776    0.0700
65     H65    -0.5769    1.3002    2.9999 H        1 ZINC000018324776    0.0700
66     H66    -2.3564    1.2619    3.0027 H        1 ZINC000018324776    0.0700
67     H67    -1.4906    2.4604    3.9936 H        1 ZINC000018324776    0.0900
@<TRIPOS>BOND
1     1     2     1
2     1     36    1
3     1     37    1
4     1     38    1
5     2     3     1
6     2     39    1
7     2     40    1
8     3     4     1
9     3     41    1
10    3     42    1
11    4     35    1
12    4     5     2
13    5     6     1
14    6     7     1
15    6     8     2
16    7     43    1
17    7     44    1
18    7     45    1
19    8     35    1
20    8     9     1
21    9     10    2
22    9     11    am
23    11    12    1
24    11    46    1
25    12    13    1
26    12    34    2
27    13    30    ar
28    13    14    ar
29    14    15    ar
30    14    47    1
31    15    16    1
32    15    28    ar
33    16    17    2
34    16    18    2
35    16    19    am
36    19    27    1
37    19    20    1
38    20    21    1
39    20    48    1
40    20    49    1
41    21    22    1
42    21    50    1
43    21    51    1
44    22    23    1
45    22    24    1
46    22    26    1
47    24    25    1
48    24    52    1
49    24    53    1
50    25    54    1
51    25    55    1
52    25    56    1
53    26    27    1
54    26    57    1
55    26    58    1
56    27    59    1
57    27    60    1
58    28    29    ar
59    28    61    1
60    29    30    ar
61    29    62    1
62    30    31    1
63    31    32    1
64    32    33    1
65    32    63    1
66    32    64    1
67    33    65    1
68    33    66    1
69    33    67    1
70    34    35    1
@<TRIPOS>SUBSTRUCTURE
1   ZINC000018324776 1     RESIDUE    1   A     ZIN   1
