@<TRIPOS>MOLECULE
ZINC000003816292
49    52    1     0     0
SMALL
USER_CHARGES
@<TRIPOS>ATOM
1      C1     -0.0951    1.5253   -0.0189 C.3      1 ZINC000003816292    0.0200
2      O2     -0.0620    0.0968   -0.0371 O.3      1 ZINC000003816292   -0.2800
3      C3     -1.2560   -0.5473   -0.0218 C.ar     1 ZINC000003816292    0.2100
4      C4     -1.2880   -1.9577   -0.0327 C.ar     1 ZINC000003816292   -0.1600
5      C5     -0.0261   -2.7209   -0.0601 C.2      1 ZINC000003816292    0.5600
6      N6     -0.0536   -4.0683   -0.0706 N.am     1 ZINC000003816292   -0.8500
7      O7      1.0390   -2.1344   -0.0733 O.2      1 ZINC000003816292   -0.5100
8      C8     -2.5016   -2.6295   -0.0173 C.ar     1 ZINC000003816292    0.0000
9      C9     -3.6930   -1.8981    0.0092 C.ar     1 ZINC000003816292   -0.1600
10     C10    -3.6536   -0.4806    0.0200 C.ar     1 ZINC000003816292    0.2200
11     C11    -2.4122    0.1761    0.0096 C.ar     1 ZINC000003816292   -0.2200
12     N12    -4.7949    0.2170    0.0463 N.ar     1 ZINC000003816292   -0.5100
13     C13    -5.9660   -0.3761    0.0626 C.ar     1 ZINC000003816292    0.1900
14     C14    -6.0876   -1.7593    0.0535 C.ar     1 ZINC000003816292   -0.2800
15     C15    -4.9502   -2.5478    0.0260 C.ar     1 ZINC000003816292    0.2000
16     O16    -5.0378   -3.8999    0.0161 O.3      1 ZINC000003816292   -0.2400
17     C17    -6.2707   -4.4605    0.1347 C.ar     1 ZINC000003816292    0.0700
18     C18    -7.1386   -4.4618   -0.9475 C.ar     1 ZINC000003816292   -0.1000
19     C19    -8.3915   -5.0311   -0.8281 C.ar     1 ZINC000003816292   -0.0900
20     C20    -8.7823   -5.6025    0.3747 C.ar     1 ZINC000003816292    0.1900
21     N21   -10.0535   -6.1808    0.4960 N.am     1 ZINC000003816292   -0.6800
22     C22   -10.6093   -6.8133   -0.5563 C.2      1 ZINC000003816292    0.7100
23     O23   -10.0434   -6.8155   -1.6325 O.2      1 ZINC000003816292   -0.5700
24     N24   -11.7924   -7.4433   -0.4158 N.am     1 ZINC000003816292   -0.7100
25     C25   -12.3966   -8.1309   -1.5597 C.3      1 ZINC000003816292    0.0900
26     C26   -13.0024   -9.5140   -1.3131 C.3      1 ZINC000003816292   -0.1900
27     C27   -13.9160   -8.3106   -1.5539 C.3      1 ZINC000003816292   -0.1900
28     C28    -7.9126   -5.6016    1.4587 C.ar     1 ZINC000003816292   -0.0500
29     Cl29   -8.4000   -6.3166    2.9637 Cl       1 ZINC000003816292   -0.0500
30     C30    -6.6581   -5.0362    1.3364 C.ar     1 ZINC000003816292   -0.0900
31     H31     0.9237    1.9126   -0.0340 H        1 ZINC000003816292    0.1100
32     H32    -0.6344    1.8874   -0.8942 H        1 ZINC000003816292    0.0600
33     H33    -0.5998    1.8655    0.8853 H        1 ZINC000003816292    0.0600
34     H34    -0.9033   -4.5362   -0.0601 H        1 ZINC000003816292    0.4000
35     H35     0.7762   -4.5702   -0.0886 H        1 ZINC000003816292    0.4100
36     H36    -2.5259   -3.7092   -0.0260 H        1 ZINC000003816292    0.1500
37     H37    -2.3729    1.2553    0.0181 H        1 ZINC000003816292    0.1500
38     H38    -6.8603    0.2290    0.0840 H        1 ZINC000003816292    0.1700
39     H39    -7.0653   -2.2179    0.0674 H        1 ZINC000003816292    0.1500
40     H40    -6.8347   -4.0172   -1.8836 H        1 ZINC000003816292    0.1400
41     H41    -9.0670   -5.0312   -1.6708 H        1 ZINC000003816292    0.1600
42     H42   -10.5331   -6.1257    1.3374 H        1 ZINC000003816292    0.4100
43     H43   -12.2439   -7.4415    0.4427 H        1 ZINC000003816292    0.4000
44     H44   -11.9141   -7.9565   -2.5214 H        1 ZINC000003816292    0.1400
45     H45   -12.9183  -10.2501   -2.1127 H        1 ZINC000003816292    0.1100
46     H46   -12.9513   -9.9125   -0.2998 H        1 ZINC000003816292    0.1000
47     H47   -14.4661   -7.9174   -0.6990 H        1 ZINC000003816292    0.1000
48     H48   -14.4331   -8.2550   -2.5118 H        1 ZINC000003816292    0.1100
49     H49    -5.9817   -5.0355    2.1784 H        1 ZINC000003816292    0.1500
@<TRIPOS>BOND
1     1     2     1
2     1     31    1
3     1     32    1
4     1     33    1
5     2     3     1
6     3     11    ar
7     3     4     ar
8     4     5     1
9     4     8     ar
10    5     6     am
11    5     7     2
12    6     34    1
13    6     35    1
14    8     9     ar
15    8     36    1
16    9     15    ar
17    9     10    ar
18    10    11    ar
19    10    12    ar
20    11    37    1
21    12    13    ar
22    13    14    ar
23    13    38    1
24    14    15    ar
25    14    39    1
26    15    16    1
27    16    17    1
28    17    30    ar
29    17    18    ar
30    18    19    ar
31    18    40    1
32    19    20    ar
33    19    41    1
34    20    21    1
35    20    28    ar
36    21    22    am
37    21    42    1
38    22    23    2
39    22    24    am
40    24    25    1
41    24    43    1
42    25    27    1
43    25    26    1
44    25    44    1
45    26    27    1
46    26    45    1
47    26    46    1
48    27    47    1
49    27    48    1
50    28    29    1
51    28    30    ar
52    30    49    1
@<TRIPOS>SUBSTRUCTURE
1   ZINC000003816292 1     RESIDUE    1   A     ZIN   1
