@<TRIPOS>MOLECULE
ZINC000001547851
26    26    1     0     0
SMALL
USER_CHARGES
@<TRIPOS>ATOM
1      C1     -0.0187    1.5258    0.0104 C.3      1 ZINC000001547851   -0.1500
2      C2      0.0021   -0.0041    0.0020 C.3      1 ZINC000001547851   -0.1400
3      C3      0.7182   -0.4975   -1.2568 C.3      1 ZINC000001547851    0.1400
4      H4      1.7103   -0.0491   -1.3098 H        1 ZINC000001547851    0.1200
5      C5      0.8473   -1.9981   -1.2057 C.2      1 ZINC000001547851    0.5100
6      N6      1.5230   -2.5824   -0.1965 N.am     1 ZINC000001547851   -0.8500
7      O7      0.3431   -2.6799   -2.0728 O.2      1 ZINC000001547851   -0.5200
8      N8     -0.0549   -0.1139   -2.4405 N.am     1 ZINC000001547851   -0.6100
9      C9      0.4537    0.7392   -3.5211 C.3      1 ZINC000001547851    0.1000
10     C10    -0.5046    0.5120   -4.7113 C.3      1 ZINC000001547851   -0.1300
11     C11    -1.8015    0.0732   -3.9926 C.3      1 ZINC000001547851   -0.1500
12     C12    -1.3193   -0.5026   -2.6794 C.2      1 ZINC000001547851    0.5300
13     O13    -1.9800   -1.2066   -1.9452 O.2      1 ZINC000001547851   -0.5200
14     H14     1.0039    1.9031    0.0027 H        1 ZINC000001547851    0.0600
15     H15    -0.5459    1.8868   -0.8726 H        1 ZINC000001547851    0.0600
16     H16    -0.5289    1.8773    0.9072 H        1 ZINC000001547851    0.0600
17     H17     0.5293   -0.3651    0.8851 H        1 ZINC000001547851    0.0800
18     H18    -1.0205   -0.3814    0.0098 H        1 ZINC000001547851    0.0900
19     H19     1.9263   -2.0370    0.4969 H        1 ZINC000001547851    0.4000
20     H20     1.6061   -3.5482   -0.1637 H        1 ZINC000001547851    0.4000
21     H21     0.4349    1.7855   -3.2162 H        1 ZINC000001547851    0.0700
22     H22     1.4671    0.4423   -3.7908 H        1 ZINC000001547851    0.0800
23     H23    -0.6607    1.4358   -5.2682 H        1 ZINC000001547851    0.0900
24     H24    -0.1344   -0.2779   -5.3648 H        1 ZINC000001547851    0.0800
25     H25    -2.4518    0.9310   -3.8215 H        1 ZINC000001547851    0.1000
26     H26    -2.3199   -0.6899   -4.5731 H        1 ZINC000001547851    0.1000
@<TRIPOS>BOND
1     1     2     1
2     1     14    1
3     1     15    1
4     1     16    1
5     2     3     1
6     2     17    1
7     2     18    1
8     3     4     1
9     3     5     1
10    3     8     1
11    5     6     am
12    5     7     2
13    6     19    1
14    6     20    1
15    8     12    am
16    8     9     1
17    9     10    1
18    9     21    1
19    9     22    1
20    10    11    1
21    10    23    1
22    10    24    1
23    11    12    1
24    11    25    1
25    11    26    1
26    12    13    2
@<TRIPOS>SUBSTRUCTURE
1   ZINC000001547851 1     RESIDUE    1   A     ZIN   1
