@<TRIPOS>MOLECULE
ZINC000034608502
66    70    1     0     0
SMALL
USER_CHARGES
@<TRIPOS>ATOM
1      O1      0.0032   -0.0566    1.3851 O.3      1 ZINC000034608502   -0.5400
2      C2     -0.1801   -0.2072   -0.0240 C.3      1 ZINC000034608502    0.2500
3      C3     -1.5071   -0.8702   -0.2900 C.ar     1 ZINC000034608502   -0.0800
4      C4     -1.8871   -1.1604   -1.5870 C.ar     1 ZINC000034608502   -0.1300
5      C5     -3.1043   -1.7685   -1.8309 C.ar     1 ZINC000034608502   -0.1200
6      C6     -3.9413   -2.0869   -0.7778 C.ar     1 ZINC000034608502   -0.1100
7      C7     -3.5608   -1.7976    0.5193 C.ar     1 ZINC000034608502   -0.1200
8      C8     -2.3417   -1.1933    0.7635 C.ar     1 ZINC000034608502   -0.0900
9      C9     -0.1552    1.1485   -0.6816 C.ar     1 ZINC000034608502   -0.1200
10     C10     0.9286    1.9865   -0.4968 C.ar     1 ZINC000034608502   -0.1200
11     C11     0.9514    3.2301   -1.1000 C.ar     1 ZINC000034608502   -0.1100
12     C12    -0.1093    3.6356   -1.8882 C.ar     1 ZINC000034608502   -0.1100
13     C13    -1.1927    2.7972   -2.0737 C.ar     1 ZINC000034608502   -0.1100
14     C14    -1.2136    1.5519   -1.4740 C.ar     1 ZINC000034608502   -0.1100
15     C15     0.9455   -1.0718   -0.5952 C.3      1 ZINC000034608502   -0.0800
16     C16     0.5664   -2.5567   -0.5189 C.3      1 ZINC000034608502   -0.1300
17     C17     1.7177   -3.3899   -1.0864 C.3      1 ZINC000034608502   -0.0200
18     N18     2.8075   -2.5114   -1.5181 N.4      1 ZINC000034608502   -0.2500
19     C19     3.8940   -3.3452   -2.0492 C.3      1 ZINC000034608502    0.0000
20     C20     4.5094   -4.1653   -0.9134 C.3      1 ZINC000034608502    0.0300
21     O21     3.5539   -5.1173   -0.4415 O.3      1 ZINC000034608502   -0.3800
22     C22     4.0307   -5.9391    0.6259 C.3      1 ZINC000034608502    0.1000
23     C23     2.9473   -6.9003    1.0423 C.ar     1 ZINC000034608502   -0.1100
24     C24     2.0438   -6.5401    2.0246 C.ar     1 ZINC000034608502   -0.1000
25     C25     1.0500   -7.4217    2.4065 C.ar     1 ZINC000034608502   -0.1200
26     C26     0.9594   -8.6635    1.8059 C.ar     1 ZINC000034608502   -0.1000
27     C27     1.8624   -9.0234    0.8231 C.ar     1 ZINC000034608502   -0.1200
28     C28     2.8535   -8.1401    0.4381 C.ar     1 ZINC000034608502   -0.1000
29     C29     2.3535   -1.6102   -2.5799 C.3      1 ZINC000034608502   -0.0100
30     C30     1.1986   -0.7120   -2.0651 C.3      1 ZINC000034608502   -0.1400
31     C31     3.3265   -1.7390   -0.3869 C.3      1 ZINC000034608502   -0.0100
32     C32     2.2436   -0.8414    0.1898 C.3      1 ZINC000034608502   -0.1500
33     H33     0.8386    0.3641    1.6303 H        1 ZINC000034608502    0.3800
34     H34    -1.2333   -0.9116   -2.4098 H        1 ZINC000034608502    0.1200
35     H35    -3.4016   -1.9945   -2.8443 H        1 ZINC000034608502    0.1300
36     H36    -4.8925   -2.5614   -0.9684 H        1 ZINC000034608502    0.1300
37     H37    -4.2148   -2.0460    1.3421 H        1 ZINC000034608502    0.1300
38     H38    -2.0445   -0.9673    1.7769 H        1 ZINC000034608502    0.1300
39     H39     1.7573    1.6697    0.1190 H        1 ZINC000034608502    0.1200
40     H40     1.7978    3.8851   -0.9550 H        1 ZINC000034608502    0.1300
41     H41    -0.0918    4.6075   -2.3589 H        1 ZINC000034608502    0.1300
42     H42    -2.0216    3.1141   -2.6893 H        1 ZINC000034608502    0.1300
43     H43    -2.0600    0.8969   -1.6190 H        1 ZINC000034608502    0.1400
44     H44     0.3908   -2.8359    0.5200 H        1 ZINC000034608502    0.1000
45     H45    -0.3359   -2.7338   -1.1043 H        1 ZINC000034608502    0.1100
46     H46     2.0846   -4.0705   -0.3181 H        1 ZINC000034608502    0.1600
47     H47     1.3601   -3.9680   -1.9384 H        1 ZINC000034608502    0.1200
48     H48     3.4973   -4.0180   -2.8095 H        1 ZINC000034608502    0.1400
49     H49     4.6586   -2.7070   -2.4920 H        1 ZINC000034608502    0.1400
50     H50     5.3926   -4.6882   -1.2801 H        1 ZINC000034608502    0.1000
51     H51     4.7932   -3.5004   -0.0977 H        1 ZINC000034608502    0.0800
52     H52     4.9040   -6.4989    0.2912 H        1 ZINC000034608502    0.0700
53     H53     4.3046   -5.3110    1.4736 H        1 ZINC000034608502    0.0700
54     H54     2.1145   -5.5699    2.4938 H        1 ZINC000034608502    0.1200
55     H55     0.3446   -7.1406    3.1745 H        1 ZINC000034608502    0.1300
56     H56     0.1835   -9.3526    2.1049 H        1 ZINC000034608502    0.1300
57     H57     1.7918   -9.9937    0.3541 H        1 ZINC000034608502    0.1300
58     H58     3.5590   -8.4212   -0.3299 H        1 ZINC000034608502    0.1200
59     H59     3.1861   -0.9866   -2.9056 H        1 ZINC000034608502    0.1300
60     H60     1.9925   -2.1983   -3.4237 H        1 ZINC000034608502    0.1300
61     H61     0.3056   -0.8854   -2.6655 H        1 ZINC000034608502    0.1000
62     H62     1.4912    0.3356   -2.1363 H        1 ZINC000034608502    0.1100
63     H63     3.6825   -2.4220    0.3844 H        1 ZINC000034608502    0.1300
64     H64     4.1537   -1.1146   -0.7245 H        1 ZINC000034608502    0.1300
65     H65     2.5571    0.2003    0.1202 H        1 ZINC000034608502    0.1000
66     H66     2.0693   -1.1034    1.2334 H        1 ZINC000034608502    0.1100
@<TRIPOS>BOND
1     1     2     1
2     1     33    1
3     2     3     1
4     2     9     1
5     2     15    1
6     3     8     ar
7     3     4     ar
8     4     5     ar
9     4     34    1
10    5     6     ar
11    5     35    1
12    6     7     ar
13    6     36    1
14    7     8     ar
15    7     37    1
16    8     38    1
17    9     14    ar
18    9     10    ar
19    10    11    ar
20    10    39    1
21    11    12    ar
22    11    40    1
23    12    13    ar
24    12    41    1
25    13    14    ar
26    13    42    1
27    14    43    1
28    15    30    1
29    15    32    1
30    15    16    1
31    16    17    1
32    16    44    1
33    16    45    1
34    17    18    1
35    17    46    1
36    17    47    1
37    18    19    1
38    18    29    1
39    18    31    1
40    19    20    1
41    19    48    1
42    19    49    1
43    20    21    1
44    20    50    1
45    20    51    1
46    21    22    1
47    22    23    1
48    22    52    1
49    22    53    1
50    23    28    ar
51    23    24    ar
52    24    25    ar
53    24    54    1
54    25    26    ar
55    25    55    1
56    26    27    ar
57    26    56    1
58    27    28    ar
59    27    57    1
60    28    58    1
61    29    30    1
62    29    59    1
63    29    60    1
64    30    61    1
65    30    62    1
66    31    32    1
67    31    63    1
68    31    64    1
69    32    65    1
70    32    66    1
@<TRIPOS>SUBSTRUCTURE
1   ZINC000034608502 1     RESIDUE    1   A     ZIN   1
