@<TRIPOS>MOLECULE
ZINC000000001706
17   17    0    0    0
SMALL
USER_CHARGES
NO_NAME
@<TRIPOS>ATOM
1 C1       -0.0176     1.4478     0.0100 C.3    1 <0>       0.0400
2 O2        0.0021    -0.0041     0.0020 O.3    1 <0>      -0.3500
3 C3       -1.1897    -0.6319     0.0100 C.2    1 <0>       0.5100
4 O4       -2.2173     0.0157     0.0233 O.2    1 <0>      -0.5000
5 C5       -1.2470    -2.1080     0.0026 C.ar   1 <0>      -0.1800
6 C6       -2.4795    -2.7728     0.0050 C.ar   1 <0>      -0.0100
7 C7       -2.4781    -4.1566    -0.0021 C.ar   1 <0>      -0.1800
8 C8       -1.2713    -4.8325    -0.0113 C.ar   1 <0>       0.1300
9 N9       -0.1246    -4.1796    -0.0129 N.ar   1 <0>      -0.4900
10 C10      -0.0734    -2.8640    -0.0126 C.ar   1 <0>       0.1600
11 H11       1.0050     1.8251     0.0023 H      1 <0>       0.1100
12 H12      -0.5448     1.8089    -0.8731 H      1 <0>       0.0700
13 H13      -0.5278     1.7993     0.9068 H      1 <0>       0.0700
14 H14      -3.4072    -2.2198     0.0126 H      1 <0>       0.1500
15 H15      -3.4096    -4.7032    -0.0002 H      1 <0>       0.1500
16 H16      -1.2675    -5.9125    -0.0168 H      1 <0>       0.1700
17 H17       0.8846    -2.3654    -0.0143 H      1 <0>       0.1700
@<TRIPOS>BOND
1    1    2 1
2    1   11 1
3    1   12 1
4    1   13 1
5    2    3 1
6    3    4 2
7    3    5 1
8    5   10 ar
9    5    6 ar
10    6    7 ar
11    6   14 1
12    7    8 ar
13    7   15 1
14    8    9 ar
15    8   16 1
16    9   10 ar
17   10   17 1
