@<TRIPOS>MOLECULE
ZINC000003861806
52    56    1     0     0
SMALL
USER_CHARGES
@<TRIPOS>ATOM
1      C1     -0.1712    1.1991   -1.3564 C.3      1 ZINC000003861806    0.0200
2      O2     -0.1012   -0.1556   -0.9071 O.3      1 ZINC000003861806   -0.3000
3      C3     -1.2533   -0.7144   -0.4489 C.ar     1 ZINC000003861806    0.1500
4      C4     -2.4267    0.0243   -0.4378 C.ar     1 ZINC000003861806   -0.2100
5      C5     -3.5982   -0.5428    0.0277 C.ar     1 ZINC000003861806   -0.0200
6      C6     -4.8712    0.2637    0.0379 C.3      1 ZINC000003861806    0.0200
7      H7     -4.6350    1.3241    0.1267 H        1 ZINC000003861806    0.1100
8      C8     -5.7434   -0.1678    1.2040 C.ar     1 ZINC000003861806   -0.0500
9      C9     -5.3812    0.3278    2.4577 C.ar     1 ZINC000003861806   -0.0900
10     C10    -6.1558   -0.0323    3.5476 C.ar     1 ZINC000003861806    0.0400
11     C11    -7.2717   -0.8686    3.3920 C.ar     1 ZINC000003861806    0.0400
12     C12    -7.6231   -1.3589    2.1456 C.ar     1 ZINC000003861806   -0.1000
13     C13    -6.8332   -0.9979    1.0526 C.ar     1 ZINC000003861806   -0.1100
14     C14    -7.2382   -1.5874   -0.2870 C.3      1 ZINC000003861806    0.1700
15     H15    -8.0733   -1.0225   -0.7011 H        1 ZINC000003861806    0.0800
16     O16    -7.6161   -2.9553   -0.1187 O.3      1 ZINC000003861806   -0.5500
17     C17    -6.0439   -1.4947   -1.2181 C.3      1 ZINC000003861806   -0.1300
18     H18    -5.2244   -2.1348   -0.8913 H        1 ZINC000003861806    0.1300
19     C19    -6.3607   -1.6825   -2.7101 C.3      1 ZINC000003861806    0.0700
20     O20    -5.3370   -0.8608   -3.3713 O.3      1 ZINC000003861806   -0.3400
21     C21    -4.8838    0.1041   -2.5370 C.2      1 ZINC000003861806    0.5000
22     O22    -4.0076    0.8985   -2.7838 O.2      1 ZINC000003861806   -0.4400
23     C23    -5.6444    0.0165   -1.2407 C.3      1 ZINC000003861806   -0.1500
24     H24    -6.5407    0.6354   -1.2839 H        1 ZINC000003861806    0.1300
25     O25    -7.8469   -1.0568    4.6014 O.3      1 ZINC000003861806   -0.3000
26     C26    -6.8540   -0.6542    5.5678 C.3      1 ZINC000003861806    0.2100
27     O27    -6.0359    0.2961    4.8540 O.3      1 ZINC000003861806   -0.3000
28     C28    -3.6054   -1.8478    0.4835 C.ar     1 ZINC000003861806   -0.2300
29     C29    -2.4361   -2.5932    0.4758 C.ar     1 ZINC000003861806    0.1500
30     O30    -2.4442   -3.8770    0.9244 O.3      1 ZINC000003861806   -0.3000
31     C31    -3.6926   -4.3939    1.3896 C.3      1 ZINC000003861806    0.0300
32     C32    -1.2573   -2.0285    0.0036 C.ar     1 ZINC000003861806    0.0300
33     O33    -0.1077   -2.7568   -0.0056 O.3      1 ZINC000003861806   -0.3100
34     C34     0.1688   -3.5178   -1.1831 C.3      1 ZINC000003861806    0.0400
35     H35     0.8137    1.5211   -1.6946 H        1 ZINC000003861806    0.1000
36     H36    -0.8803    1.2722   -2.1810 H        1 ZINC000003861806    0.0600
37     H37    -0.5003    1.8374   -0.5364 H        1 ZINC000003861806    0.0600
38     H38    -2.4253    1.0442   -0.7931 H        1 ZINC000003861806    0.1400
39     H39    -4.5229    0.9729    2.5740 H        1 ZINC000003861806    0.1500
40     H40    -8.4825   -2.0013    2.0227 H        1 ZINC000003861806    0.1400
41     H41    -8.3606   -3.0863    0.4843 H        1 ZINC000003861806    0.3800
42     H42    -6.2593   -2.7291   -2.9969 H        1 ZINC000003861806    0.1200
43     H43    -7.3599   -1.3133   -2.9414 H        1 ZINC000003861806    0.1000
44     H44    -7.3278   -0.1804    6.4276 H        1 ZINC000003861806    0.1400
45     H45    -6.2580   -1.5107    5.8827 H        1 ZINC000003861806    0.0900
46     H46    -4.5227   -2.2872    0.8464 H        1 ZINC000003861806    0.1400
47     H47    -3.5593   -5.4247    1.7180 H        1 ZINC000003861806    0.1000
48     H48    -4.0476   -3.7896    2.2245 H        1 ZINC000003861806    0.0500
49     H49    -4.4230   -4.3616    0.5812 H        1 ZINC000003861806    0.0600
50     H50    -0.6343   -4.2360   -1.3483 H        1 ZINC000003861806    0.0400
51     H51     0.2394   -2.8482   -2.0402 H        1 ZINC000003861806    0.0400
52     H52     1.1120   -4.0497   -1.0588 H        1 ZINC000003861806    0.0900
@<TRIPOS>BOND
1     1     2     1
2     1     35    1
3     1     36    1
4     1     37    1
5     2     3     1
6     3     32    ar
7     3     4     ar
8     4     5     ar
9     4     38    1
10    5     6     1
11    5     28    ar
12    6     7     1
13    6     23    1
14    6     8     1
15    8     13    ar
16    8     9     ar
17    9     10    ar
18    9     39    1
19    10    27    1
20    10    11    ar
21    11    12    ar
22    11    25    1
23    12    13    ar
24    12    40    1
25    13    14    1
26    14    15    1
27    14    16    1
28    14    17    1
29    16    41    1
30    17    18    1
31    17    23    1
32    17    19    1
33    19    20    1
34    19    42    1
35    19    43    1
36    20    21    1
37    21    22    2
38    21    23    1
39    23    24    1
40    25    26    1
41    26    27    1
42    26    44    1
43    26    45    1
44    28    29    ar
45    28    46    1
46    29    30    1
47    29    32    ar
48    30    31    1
49    31    47    1
50    31    48    1
51    31    49    1
52    32    33    1
53    33    34    1
54    34    50    1
55    34    51    1
56    34    52    1
@<TRIPOS>SUBSTRUCTURE
1   ZINC000003861806 1     RESIDUE    1   A     ZIN   1
