@<TRIPOS>MOLECULE
ZINC000003872605
43   43    0    0    0
SMALL
USER_CHARGES
NO_NAME
@<TRIPOS>ATOM
1 C1       -4.3882    -2.1140    -0.7826 C.3    1 <0>       0.0300
2 O2       -3.0159    -2.4374    -0.5501 O.3    1 <0>      -0.3900
3 C3       -2.3537    -3.0086    -1.6804 C.3    1 <0>       0.0600
4 C4       -0.8986    -3.3131    -1.3188 C.3    1 <0>      -0.1200
5 C5       -0.1897    -3.9246    -2.5290 C.3    1 <0>      -0.1100
6 C6        1.2655    -4.2292    -2.1674 C.3    1 <0>      -0.1100
7 C7        1.9312    -4.9382    -3.3186 C.2    1 <0>       0.1700
8 N8        2.5225    -4.2550    -4.2440 N.2    1 <0>      -0.3200
9 O9        2.6411    -2.8494    -4.1200 O.3    1 <0>      -0.2300
10 C10       3.3158    -2.2243    -5.2136 C.3    1 <0>       0.0700
11 C11       3.3856    -0.7148    -4.9742 C.3    1 <0>       0.0700
12 N12       4.2208    -0.4440    -3.7964 N.3    1 <0>      -0.8500
13 C13       1.9086    -6.4127    -3.3900 C.ar   1 <0>      -0.0200
14 C14       1.2663    -7.1530    -2.3957 C.ar   1 <0>      -0.0900
15 C15       1.2489    -8.5305    -2.4686 C.ar   1 <0>      -0.0700
16 C16       1.8665    -9.1785    -3.5236 C.ar   1 <0>      -0.1700
17 C17       1.8438   -10.6836    -3.5961 C.3    1 <0>       0.5100
18 F18       0.7129   -11.0992    -4.3073 F      1 <0>      -0.1700
19 F19       2.9964   -11.1365    -4.2470 F      1 <0>      -0.1800
20 F20       1.8010   -11.2123    -2.3016 F      1 <0>      -0.1800
21 C21       2.5044    -8.4509    -4.5125 C.ar   1 <0>      -0.0700
22 C22       2.5244    -7.0727    -4.4550 C.ar   1 <0>      -0.0800
23 H23      -4.4585    -1.3913    -1.5956 H      1 <0>       0.0400
24 H24      -4.9340    -3.0182    -1.0521 H      1 <0>       0.0400
25 H25      -4.8189    -1.6857     0.1224 H      1 <0>       0.0900
26 H26      -2.8573    -3.9313    -1.9684 H      1 <0>       0.0500
27 H27      -2.3818    -2.3045    -2.5120 H      1 <0>       0.0500
28 H28      -0.3950    -2.3904    -1.0307 H      1 <0>       0.0700
29 H29      -0.8705    -4.0172    -0.4872 H      1 <0>       0.0700
30 H30      -0.6933    -4.8474    -2.8171 H      1 <0>       0.0700
31 H31      -0.2177    -3.2205    -3.3606 H      1 <0>       0.0700
32 H32       1.7915    -3.2969    -1.9617 H      1 <0>       0.0900
33 H33       1.2945    -4.8656    -1.2830 H      1 <0>       0.0900
34 H34       4.3256    -2.6264    -5.2952 H      1 <0>       0.0700
35 H35       2.7708    -2.4209    -6.1369 H      1 <0>       0.0600
36 H36       3.8201    -0.2281    -5.8473 H      1 <0>       0.0900
37 H37       2.3812    -0.3270    -4.8043 H      1 <0>       0.0400
38 H38       4.2826     0.5470    -3.6171 H      1 <0>       0.3400
39 H39       3.8750    -0.9370    -2.9868 H      1 <0>       0.3500
40 H40       0.7844    -6.6485    -1.5713 H      1 <0>       0.1400
41 H41       0.7524    -9.1045    -1.7001 H      1 <0>       0.1400
42 H42       2.9845    -8.9629    -5.3333 H      1 <0>       0.1400
43 H43       3.0224    -6.5059    -5.2278 H      1 <0>       0.1500
@<TRIPOS>BOND
1    1    2 1
2    1   23 1
3    1   24 1
4    1   25 1
5    2    3 1
6    3    4 1
7    3   26 1
8    3   27 1
9    4    5 1
10    4   28 1
11    4   29 1
12    5    6 1
13    5   30 1
14    5   31 1
15    6    7 1
16    6   32 1
17    6   33 1
18    7    8 2
19    7   13 1
20    8    9 1
21    9   10 1
22   10   11 1
23   10   34 1
24   10   35 1
25   11   12 1
26   11   36 1
27   11   37 1
28   12   38 1
29   12   39 1
30   13   22 ar
31   13   14 ar
32   14   15 ar
33   14   40 1
34   15   16 ar
35   15   41 1
36   16   17 1
37   16   21 ar
38   17   18 1
39   17   19 1
40   17   20 1
41   21   22 ar
42   21   42 1
43   22   43 1
