@<TRIPOS>MOLECULE
ZINC000001530737
43    43    1     0     0
SMALL
USER_CHARGES
@<TRIPOS>ATOM
1      C1      0.8008    0.1996    1.2499 C.3      1 ZINC000001530737    0.1200
2      N2      0.0401    0.0101    0.0123 N.pl3    1 ZINC000001530737   -0.7900
3      C3      0.6388   -0.5965   -1.0852 C.2      1 ZINC000001530737    0.5200
4      C4      0.6446   -1.9230   -1.1914 C.2      1 ZINC000001530737   -0.2500
5      N5     -0.0978   -2.7475   -0.2106 N.pl3    1 ZINC000001530737    0.0600
6      O6     -0.7931   -2.2112    0.6335 O.2      1 ZINC000001530737   -0.1800
7      O7     -0.0132   -3.9620   -0.2481 O.2      1 ZINC000001530737   -0.2100
8      N8      1.2315    0.1820   -2.0719 N.pl3    1 ZINC000001530737   -0.7200
9      C9      1.1282    1.6422   -2.0134 C.3      1 ZINC000001530737    0.1400
10     C10     1.7521    2.2485   -3.2720 C.3      1 ZINC000001530737   -0.1100
11     S11     1.6242    4.0565   -3.1995 S.3      1 ZINC000001530737   -0.2100
12     C12     2.4040    4.5832   -4.7504 C.3      1 ZINC000001530737   -0.0200
13     C13     2.3761    6.0872   -4.8412 C.2      1 ZINC000001530737    0.0800
14     C14     1.3638    6.7592   -5.3976 C.2      1 ZINC000001530737   -0.2000
15     S15     1.7330    8.4790   -5.2945 S.3      1 ZINC000001530737    0.2200
16     C16     3.2118    8.1235   -4.5135 C.2      1 ZINC000001530737   -0.0600
17     C17     4.2114    9.1515   -4.0499 C.3      1 ZINC000001530737    0.0900
18     N18     5.1710    9.4226   -5.1287 N.4      1 ZINC000001530737   -0.3900
19     H19     4.6718    9.6942   -5.9624 H        1 ZINC000001530737    0.4300
20     C20     6.0715   10.5094   -4.7213 C.3      1 ZINC000001530737   -0.0500
21     C21     5.9567    8.2117   -5.4009 C.3      1 ZINC000001530737   -0.0500
22     N22     3.3454    6.8478   -4.3734 N.2      1 ZINC000001530737   -0.4200
23     H23     1.0496   -0.7723    1.6760 H        1 ZINC000001530737    0.0500
24     H24     1.7183    0.7465    1.0323 H        1 ZINC000001530737    0.0400
25     H25     0.2006    0.7658    1.9622 H        1 ZINC000001530737    0.0800
26     H26    -0.8814    0.3080   -0.0410 H        1 ZINC000001530737    0.4100
27     H27     1.1907   -2.3982   -1.9928 H        1 ZINC000001530737    0.1800
28     H28     1.7136   -0.2413   -2.7994 H        1 ZINC000001530737    0.4100
29     H29     0.0786    1.9301   -1.9534 H        1 ZINC000001530737    0.0800
30     H30     1.6563    2.0089   -1.1332 H        1 ZINC000001530737    0.0800
31     H31     2.8017    1.9606   -3.3319 H        1 ZINC000001530737    0.0900
32     H32     1.2240    1.8818   -4.1521 H        1 ZINC000001530737    0.1000
33     H33     3.4373    4.2369   -4.7733 H        1 ZINC000001530737    0.1100
34     H34     1.8596    4.1581   -5.5935 H        1 ZINC000001530737    0.1100
35     H35     0.4763    6.3249   -5.8334 H        1 ZINC000001530737    0.2000
36     H36     3.6905   10.0722   -3.7871 H        1 ZINC000001530737    0.1500
37     H37     4.7434    8.7732   -3.1770 H        1 ZINC000001530737    0.1600
38     H38     6.6108   10.2160   -3.8206 H        1 ZINC000001530737    0.1300
39     H39     6.7835   10.7106   -5.5217 H        1 ZINC000001530737    0.1300
40     H40     5.4885   11.4079   -4.5192 H        1 ZINC000001530737    0.1300
41     H41     5.2885    7.4053   -5.7032 H        1 ZINC000001530737    0.1200
42     H42     6.6687    8.4129   -6.2014 H        1 ZINC000001530737    0.1300
43     H43     6.4960    7.9183   -4.5003 H        1 ZINC000001530737    0.1300
@<TRIPOS>BOND
1     1     2     1
2     1     23    1
3     1     24    1
4     1     25    1
5     2     3     1
6     2     26    1
7     3     4     2
8     3     8     1
9     4     5     1
10    4     27    1
11    5     6     2
12    5     7     2
13    8     9     1
14    8     28    1
15    9     10    1
16    9     29    1
17    9     30    1
18    10    11    1
19    10    31    1
20    10    32    1
21    11    12    1
22    12    13    1
23    12    33    1
24    12    34    1
25    13    22    1
26    13    14    2
27    14    15    1
28    14    35    1
29    15    16    1
30    16    17    1
31    16    22    2
32    17    18    1
33    17    36    1
34    17    37    1
35    18    19    1
36    18    20    1
37    18    21    1
38    20    38    1
39    20    39    1
40    20    40    1
41    21    41    1
42    21    42    1
43    21    43    1
@<TRIPOS>SUBSTRUCTURE
1   ZINC000001530737 1     RESIDUE    1   A     ZIN   1
