@<TRIPOS>MOLECULE
ZINC000003875980
50    53    1     0     0
SMALL
USER_CHARGES
@<TRIPOS>ATOM
1      C1     -0.0187    1.5258    0.0104 C.3      1 ZINC000003875980   -0.1500
2      C2      0.0021   -0.0041    0.0020 C.3      1 ZINC000003875980    0.0500
3      O3     -1.3386   -0.4987    0.0122 O.3      1 ZINC000003875980   -0.3000
4      C4     -1.4979   -1.8447    0.0065 C.ar     1 ZINC000003875980    0.1800
5      C5     -0.3767   -2.6760   -0.0029 C.ar     1 ZINC000003875980   -0.2000
6      C6     -0.4898   -4.0293   -0.0088 C.ar     1 ZINC000003875980   -0.0400
7      C7     -1.7539   -4.6466   -0.0057 C.ar     1 ZINC000003875980   -0.0800
8      C8     -1.8814   -6.0458   -0.0118 C.ar     1 ZINC000003875980   -0.0900
9      C9     -3.1212   -6.6096   -0.0081 C.ar     1 ZINC000003875980   -0.1300
10     C10    -4.2679   -5.8198    0.0015 C.ar     1 ZINC000003875980   -0.0900
11     C11    -4.1806   -4.4591    0.0076 C.ar     1 ZINC000003875980   -0.1100
12     C12    -2.9219   -3.8466    0.0041 C.ar     1 ZINC000003875980    0.0200
13     C13    -2.7821   -2.3913    0.0158 C.ar     1 ZINC000003875980   -0.1700
14     C14    -3.9683   -1.5227    0.0322 C.2      1 ZINC000003875980    0.5900
15     O15    -4.4512   -1.1726    1.0925 O.2      1 ZINC000003875980   -0.5200
16     N16    -4.5207   -1.1144   -1.1274 N.am     1 ZINC000003875980   -0.6900
17     C17    -5.7026   -0.2490   -1.1110 C.3      1 ZINC000003875980    0.0900
18     H18    -5.7848    0.3406   -0.1979 H        1 ZINC000003875980    0.1400
19     C19    -6.9838   -0.9593   -1.4956 C.2      1 ZINC000003875980    0.4900
20     O20    -7.6909   -1.7789   -0.9485 O.2      1 ZINC000003875980   -0.4300
21     N21    -7.0317   -0.3153   -2.7009 N.am     1 ZINC000003875980   -0.5000
22     C22    -5.8847    0.5700   -2.3921 C.3      1 ZINC000003875980    0.1000
23     H23    -6.1176    1.6251   -2.2492 H        1 ZINC000003875980    0.1500
24     S24    -4.6540    0.2301   -3.7051 S.3      1 ZINC000003875980   -0.2900
25     C25    -5.8853   -0.4517   -4.8940 C.3      1 ZINC000003875980    0.0200
26     C26    -6.5777    0.6643   -5.6788 C.3      1 ZINC000003875980   -0.1200
27     C27    -5.2430   -1.4723   -5.8358 C.3      1 ZINC000003875980   -0.1200
28     C28    -6.8605   -1.1486   -3.8947 C.3      1 ZINC000003875980    0.0200
29     H29    -6.4578   -2.1233   -3.6190 H        1 ZINC000003875980    0.0700
30     C30    -8.2024   -1.3332   -4.5552 C.2      1 ZINC000003875980    0.5100
31     O31    -8.4385   -2.3522   -5.1817 O.co2    1 ZINC000003875980   -0.6900
32     O32    -9.0519   -0.4635   -4.4632 O.co2    1 ZINC000003875980   -0.6600
33     H33     1.0039    1.9031    0.0027 H        1 ZINC000003875980    0.0800
34     H34    -0.5459    1.8868   -0.8726 H        1 ZINC000003875980    0.0700
35     H35    -0.5289    1.8773    0.9072 H        1 ZINC000003875980    0.0700
36     H36     0.5123   -0.3556   -0.8948 H        1 ZINC000003875980    0.0700
37     H37     0.5293   -0.3651    0.8851 H        1 ZINC000003875980    0.0600
38     H38     0.6074   -2.2311   -0.0058 H        1 ZINC000003875980    0.1400
39     H39     0.4015   -4.6390   -0.0164 H        1 ZINC000003875980    0.1300
40     H40    -1.0008   -6.6710   -0.0196 H        1 ZINC000003875980    0.1300
41     H41    -3.2163   -7.6854   -0.0131 H        1 ZINC000003875980    0.1300
42     H42    -5.2396   -6.2913    0.0038 H        1 ZINC000003875980    0.1300
43     H43    -5.0774   -3.8574    0.0147 H        1 ZINC000003875980    0.1300
44     H44    -4.1356   -1.3936   -1.9728 H        1 ZINC000003875980    0.4100
45     H45    -5.8366    1.2150   -6.2580 H        1 ZINC000003875980    0.0600
46     H46    -7.3162    0.2302   -6.3529 H        1 ZINC000003875980    0.0800
47     H47    -7.0738    1.3427   -4.9847 H        1 ZINC000003875980    0.0700
48     H48    -4.8087   -2.2832   -5.2511 H        1 ZINC000003875980    0.0600
49     H49    -6.0015   -1.8744   -6.5075 H        1 ZINC000003875980    0.0900
50     H50    -4.4614   -0.9863   -6.4197 H        1 ZINC000003875980    0.0600
@<TRIPOS>BOND
1     1     2     1
2     1     33    1
3     1     34    1
4     1     35    1
5     2     3     1
6     2     36    1
7     2     37    1
8     3     4     1
9     4     13    ar
10    4     5     ar
11    5     6     ar
12    5     38    1
13    6     7     ar
14    6     39    1
15    7     12    ar
16    7     8     ar
17    8     9     ar
18    8     40    1
19    9     10    ar
20    9     41    1
21    10    11    ar
22    10    42    1
23    11    12    ar
24    11    43    1
25    12    13    ar
26    13    14    1
27    14    15    2
28    14    16    am
29    16    17    1
30    16    44    1
31    17    18    1
32    17    22    1
33    17    19    1
34    19    20    2
35    19    21    am
36    21    28    1
37    21    22    1
38    22    23    1
39    22    24    1
40    24    25    1
41    25    26    1
42    25    27    1
43    25    28    1
44    26    45    1
45    26    46    1
46    26    47    1
47    27    48    1
48    27    49    1
49    27    50    1
50    28    29    1
51    28    30    1
52    30    31    ar
53    30    32    ar
@<TRIPOS>SUBSTRUCTURE
1   ZINC000003875980 1     RESIDUE    1   A     ZIN   1
