@<TRIPOS>MOLECULE
ZINC000019364242
32    31    1     0     0
SMALL
USER_CHARGES
@<TRIPOS>ATOM
1      O1     -3.0768    3.3059   -2.0798 O.co2    1 ZINC000019364242   -0.6900
2      C2     -2.1704    3.8406   -1.4641 C.2      1 ZINC000019364242    0.4700
3      O3     -1.8290    4.9766   -1.7461 O.co2    1 ZINC000019364242   -0.7400
4      C4     -1.4762    3.0997   -0.3505 C.3      1 ZINC000019364242    0.0000
5      N5     -2.1368    1.8050   -0.1375 N.3      1 ZINC000019364242   -0.4900
6      C6     -3.5494    1.9875    0.2219 C.3      1 ZINC000019364242    0.0500
7      C7     -3.6441    2.6733    1.5863 C.3      1 ZINC000019364242    0.0500
8      N8     -5.0567    2.8558    1.9456 N.3      1 ZINC000019364242   -0.4900
9      C9     -5.7173    1.5611    2.1586 C.3      1 ZINC000019364242    0.0000
10     C10    -5.0183    0.8169    3.2671 C.2      1 ZINC000019364242    0.4700
11     O11    -4.1066    1.3483    3.8777 O.co2    1 ZINC000019364242   -0.6900
12     O12    -5.3647   -0.3165    3.5533 O.co2    1 ZINC000019364242   -0.7400
13     C13    -5.1921    3.7168    3.1281 C.3      1 ZINC000019364242   -0.0100
14     C14    -6.6130    4.2082    3.2317 C.2      1 ZINC000019364242    0.5000
15     O15    -7.4367    3.8716    2.3982 O.co2    1 ZINC000019364242   -0.6900
16     O16    -6.9388    4.9423    4.1489 O.co2    1 ZINC000019364242   -0.7500
17     C17    -2.0014    0.9440   -1.3200 C.3      1 ZINC000019364242   -0.0100
18     C18    -0.6063    0.3763   -1.3710 C.2      1 ZINC000019364242    0.5000
19     O19     0.1692    0.5813   -0.4528 O.co2    1 ZINC000019364242   -0.6900
20     O20    -0.2531   -0.2879   -2.3304 O.co2    1 ZINC000019364242   -0.7500
21     H21    -0.4326    2.9353   -0.6187 H        1 ZINC000019364242    0.0700
22     H22    -1.5276    3.6888    0.5652 H        1 ZINC000019364242    0.0600
23     H23    -4.0387    2.6061   -0.5305 H        1 ZINC000019364242    0.0600
24     H24    -4.0409    1.0157    0.2688 H        1 ZINC000019364242    0.0400
25     H25    -3.1548    2.0546    2.3386 H        1 ZINC000019364242    0.0700
26     H26    -3.1526    3.6451    1.5394 H        1 ZINC000019364242    0.0400
27     H27    -6.7595    1.7256    2.4322 H        1 ZINC000019364242    0.0700
28     H28    -5.6707    0.9742    1.2413 H        1 ZINC000019364242    0.0500
29     H29    -4.9383    3.1480    4.0226 H        1 ZINC000019364242    0.0600
30     H30    -4.5187    4.5689    3.0361 H        1 ZINC000019364242    0.0400
31     H31    -2.7232    0.1294   -1.2609 H        1 ZINC000019364242    0.0400
32     H32    -2.1881    1.5304   -2.2197 H        1 ZINC000019364242    0.0600
@<TRIPOS>BOND
1     1     2     ar
2     2     3     ar
3     2     4     1
4     4     5     1
5     4     21    1
6     4     22    1
7     5     6     1
8     5     17    1
9     6     7     1
10    6     23    1
11    6     24    1
12    7     8     1
13    7     25    1
14    7     26    1
15    8     9     1
16    8     13    1
17    9     10    1
18    9     27    1
19    9     28    1
20    10    11    ar
21    10    12    ar
22    13    14    1
23    13    29    1
24    13    30    1
25    14    15    ar
26    14    16    ar
27    17    18    1
28    17    31    1
29    17    32    1
30    18    19    ar
31    18    20    ar
@<TRIPOS>SUBSTRUCTURE
1   ZINC000019364242 1     RESIDUE    1   A     ZIN   1
