@<TRIPOS>MOLECULE
ZINC000000003911
46   47    0    0    0
SMALL
USER_CHARGES
NO_NAME
@<TRIPOS>ATOM
1 C1       -0.0187     1.5258     0.0104 C.3    1 <0>      -0.1800
2 C2        0.0021    -0.0041     0.0020 C.3    1 <0>       0.0300
3 H3        0.5123    -0.3556    -0.8948 H      1 <0>       0.1400
4 C4       -1.4333    -0.5336     0.0129 C.3    1 <0>      -0.1400
5 C5       -1.4157    -2.0577    -0.1212 C.3    1 <0>      -0.0900
6 C6       -2.8295    -2.5793    -0.1105 C.ar   1 <0>      -0.1100
7 C7       -3.4314    -2.9171     1.0875 C.ar   1 <0>      -0.1000
8 C8       -4.7273    -3.3955     1.1000 C.ar   1 <0>      -0.1400
9 C9       -5.4250    -3.5364    -0.0908 C.ar   1 <0>       0.1200
10 O10      -6.7001    -4.0064    -0.0811 O.3    1 <0>      -0.5000
11 C11      -4.8189    -3.1963    -1.2915 C.ar   1 <0>      -0.1400
12 C12      -3.5245    -2.7138    -1.2982 C.ar   1 <0>      -0.0900
13 N13       0.7126    -0.4907     1.1921 N.4    1 <0>      -0.5100
14 H14       0.2897    -0.0986     2.0201 H      1 <0>       0.4300
15 H15       0.6554    -1.4974     1.2298 H      1 <0>       0.4300
16 C16       2.1220    -0.0825     1.1220 C.3    1 <0>      -0.0100
17 C17       2.8620    -0.5894     2.3615 C.3    1 <0>      -0.1000
18 C18       4.3078    -0.1706     2.2896 C.ar   1 <0>      -0.1000
19 C19       5.2343    -0.9933     1.6772 C.ar   1 <0>      -0.1000
20 C20       6.5623    -0.6138     1.6090 C.ar   1 <0>      -0.1300
21 C21       6.9665     0.5935     2.1549 C.ar   1 <0>       0.1000
22 O22       8.2720     0.9684     2.0883 O.3    1 <0>      -0.4800
23 C23       6.0334     1.4222     2.7713 C.ar   1 <0>       0.0900
24 O24       6.4252     2.6087     3.3082 O.3    1 <0>      -0.4800
25 C25       4.7037     1.0384     2.8315 C.ar   1 <0>      -0.1200
26 H26       1.0039     1.9031     0.0027 H      1 <0>       0.0800
27 H27      -0.5459     1.8868    -0.8726 H      1 <0>       0.1100
28 H28      -0.5289     1.8773     0.9072 H      1 <0>       0.0800
29 H29      -1.9156    -0.2570     0.9504 H      1 <0>       0.0900
30 H30      -1.9862    -0.1019    -0.8214 H      1 <0>       0.1200
31 H31      -0.9334    -2.3344    -1.0587 H      1 <0>       0.0900
32 H32      -0.8628    -2.4894     0.7131 H      1 <0>       0.0700
33 H33      -2.8878    -2.8073     2.0143 H      1 <0>       0.1200
34 H34      -5.1968    -3.6600     2.0360 H      1 <0>       0.1300
35 H35      -7.3728    -3.3167     0.0019 H      1 <0>       0.4000
36 H36      -5.3599    -3.3053    -2.2199 H      1 <0>       0.1300
37 H37      -3.0524    -2.4485    -2.2326 H      1 <0>       0.1300
38 H38       2.5788    -0.5061     0.2276 H      1 <0>       0.1300
39 H39       2.1837     1.0050     1.0814 H      1 <0>       0.1400
40 H40       2.4051    -0.1658     3.2560 H      1 <0>       0.1000
41 H41       2.8002    -1.6769     2.4022 H      1 <0>       0.1000
42 H42       4.9204    -1.9349     1.2513 H      1 <0>       0.1300
43 H43       7.2844    -1.2589     1.1306 H      1 <0>       0.1400
44 H44       8.4952     1.4775     1.2971 H      1 <0>       0.4000
45 H45       6.3842     3.3522     2.6913 H      1 <0>       0.3900
46 H46       3.9777     1.6796     3.3092 H      1 <0>       0.1400
@<TRIPOS>BOND
1    1    2 1
2    1   26 1
3    1   27 1
4    1   28 1
5    2    3 1
6    2    4 1
7    2   13 1
8    4    5 1
9    4   29 1
10    4   30 1
11    5    6 1
12    5   31 1
13    5   32 1
14    6   12 ar
15    6    7 ar
16    7    8 ar
17    7   33 1
18    8    9 ar
19    8   34 1
20    9   10 1
21    9   11 ar
22   10   35 1
23   11   12 ar
24   11   36 1
25   12   37 1
26   13   14 1
27   13   15 1
28   13   16 1
29   16   17 1
30   16   38 1
31   16   39 1
32   17   18 1
33   17   40 1
34   17   41 1
35   18   25 ar
36   18   19 ar
37   19   20 ar
38   19   42 1
39   20   21 ar
40   20   43 1
41   21   22 1
42   21   23 ar
43   22   44 1
44   23   24 1
45   23   25 ar
46   24   45 1
47   25   46 1
