@<TRIPOS>MOLECULE
ZINC000004474443
46   48    0    0    0
SMALL
USER_CHARGES
NO_NAME
@<TRIPOS>ATOM
1 C1        2.3858     0.0813     0.4197 C.3    1 <0>      -0.1100
2 C2        1.1076    -0.6790     0.1762 C.2    1 <0>      -0.1900
3 C3        0.4873    -0.5821    -1.0022 C.2    1 <0>      -0.0400
4 C4        1.1096     0.1598    -2.0967 C.2    1 <0>      -0.1500
5 C5        1.4894    -0.5662    -3.1691 C.2    1 <0>       0.1000
6 C6        1.3439    -2.0228    -3.1567 C.2    1 <0>       0.5200
7 O7        0.9759    -2.5929    -2.1370 O.co2  1 <0>      -0.6400
8 O8        1.5902    -2.6715    -4.1660 O.co2  1 <0>      -0.6600
9 N9        2.0220     0.0750    -4.2929 N.am   1 <0>      -0.5400
10 C10       2.1837    -0.0548    -5.6039 C.2    1 <0>       0.5200
11 O11       2.1582    -1.0222    -6.3352 O.2    1 <0>      -0.4400
12 C12       2.4105     1.4143    -5.8742 C.3    1 <0>       0.1200
13 H13       3.3189     1.6343    -6.4349 H      1 <0>       0.1600
14 N14       1.2315     2.1276    -6.3716 N.am   1 <0>      -0.6600
15 C15       1.1459     2.4614    -7.6746 C.2    1 <0>       0.5100
16 O16       2.0449     2.1712    -8.4353 O.2    1 <0>      -0.5100
17 C17      -0.0669     3.1951    -8.1864 C.3    1 <0>       0.0700
18 H18      -0.9622     2.7912    -7.7137 H      1 <0>       0.1700
19 N19      -0.1632     3.0261    -9.6424 N.4    1 <0>      -0.6200
20 H20       0.6656     3.4000   -10.0799 H      1 <0>       0.4400
21 H21      -0.2461     2.0449    -9.8624 H      1 <0>       0.4500
22 H22      -0.9752     3.5174    -9.9851 H      1 <0>       0.4400
23 C23       0.0570     4.6606    -7.8578 C.ar   1 <0>      -0.1600
24 C24       0.8389     5.4816    -8.6493 C.ar   1 <0>      -0.0900
25 C25       0.9541     6.8254    -8.3503 C.ar   1 <0>      -0.1400
26 C26       0.2840     7.3510    -7.2551 C.ar   1 <0>       0.1500
27 O27       0.3954     8.6727    -6.9591 O.3    1 <0>      -0.4900
28 C28      -0.5002     6.5253    -6.4628 C.ar   1 <0>      -0.1300
29 C29      -0.6160     5.1831    -6.7689 C.ar   1 <0>      -0.0600
30 C30       2.5790     1.4539    -4.3655 C.3    1 <0>       0.1100
31 H31       3.6114     1.5474    -4.0286 H      1 <0>       0.1400
32 S32       1.4180     2.5445    -3.4771 S.3    1 <0>      -0.2600
33 C33       1.2459     1.6345    -1.9009 C.3    1 <0>      -0.0100
34 H34       3.1078    -0.1626    -0.3596 H      1 <0>       0.0500
35 H35       2.1806     1.1517     0.4028 H      1 <0>       0.0600
36 H36       2.7934    -0.1951     1.3921 H      1 <0>       0.0500
37 H37       0.6934    -1.3024     0.9549 H      1 <0>       0.1100
38 H38      -0.4744    -1.0519    -1.1465 H      1 <0>       0.1100
39 H39       0.5125     2.3596    -5.7633 H      1 <0>       0.4200
40 H40       1.3603     5.0720    -9.5017 H      1 <0>       0.1300
41 H41       1.5655     7.4661    -8.9683 H      1 <0>       0.1400
42 H42      -0.2718     9.2286    -7.3846 H      1 <0>       0.4000
43 H43      -1.0226     6.9320    -5.6095 H      1 <0>       0.1500
44 H44      -1.2267     4.5399    -6.1527 H      1 <0>       0.1400
45 H45       0.3752     2.0145    -1.3663 H      1 <0>       0.1200
46 H46       2.1346     1.8071    -1.2938 H      1 <0>       0.1000
@<TRIPOS>BOND
1    1    2 1
2    1   34 1
3    1   35 1
4    1   36 1
5    2    3 2
6    2   37 1
7    3    4 1
8    3   38 1
9    4   33 1
10    4    5 2
11    5    6 1
12    5    9 1
13    6    7 ar
14    6    8 ar
15    9   30 1
16    9   10 am
17   10   11 2
18   10   12 1
19   12   13 1
20   12   14 1
21   12   30 1
22   14   15 am
23   14   39 1
24   15   16 2
25   15   17 1
26   17   18 1
27   17   19 1
28   17   23 1
29   19   20 1
30   19   21 1
31   19   22 1
32   23   29 ar
33   23   24 ar
34   24   25 ar
35   24   40 1
36   25   26 ar
37   25   41 1
38   26   27 1
39   26   28 ar
40   27   42 1
41   28   29 ar
42   28   43 1
43   29   44 1
44   30   31 1
45   30   32 1
46   32   33 1
47   33   45 1
48   33   46 1
