@<TRIPOS>MOLECULE
ZINC000000121541
35   37    0    0    0
SMALL
USER_CHARGES
NO_NAME
@<TRIPOS>ATOM
1 C1       -0.5091     1.5279    -0.4124 C.3    1 <0>       0.0500
2 O2       -0.6714     0.0915    -0.5489 O.3    1 <0>      -0.3500
3 C3        0.1077    -0.5282    -1.4553 C.2    1 <0>       0.6600
4 O4        0.9014     0.1137    -2.1141 O.2    1 <0>      -0.5600
5 N5        0.0072    -1.8606    -1.6318 N.am   1 <0>      -0.6100
6 C6        0.8082    -2.4976    -2.5636 C.2    1 <0>       0.5200
7 N7        0.7886    -3.7806    -2.8187 N.2    1 <0>      -0.5000
8 C8        1.7004    -4.0656    -3.7860 C.ar   1 <0>       0.0500
9 C9        2.0850    -5.2444    -4.4205 C.ar   1 <0>      -0.0200
10 C10       3.0773    -5.2053    -5.3984 C.ar   1 <0>      -0.1700
11 C11       3.4918    -6.4485    -6.0765 C.2    1 <0>       0.4500
12 O12       4.4485    -6.4418    -6.8267 O.2    1 <0>      -0.4400
13 C13       2.7442    -7.7017    -5.8437 C.ar   1 <0>      -0.1600
14 C14       1.3637    -7.6665    -5.6345 C.ar   1 <0>      -0.0900
15 C15       0.6721    -8.8401    -5.4183 C.ar   1 <0>      -0.1300
16 C16       1.3430   -10.0505    -5.4079 C.ar   1 <0>      -0.0900
17 C17       2.7107   -10.0926    -5.6140 C.ar   1 <0>      -0.1300
18 C18       3.4139    -8.9273    -5.8376 C.ar   1 <0>      -0.0700
19 C19       3.6819    -3.9879    -5.7394 C.ar   1 <0>      -0.0500
20 C20       3.3067    -2.8316    -5.1184 C.ar   1 <0>      -0.1100
21 C21       2.3190    -2.8522    -4.1411 C.ar   1 <0>       0.0800
22 N22       1.7318    -1.8791    -3.3570 N.pl3  1 <0>      -0.5900
23 H23       0.5165     1.7514    -0.1186 H      1 <0>       0.0700
24 H24      -0.7276     2.0104    -1.3651 H      1 <0>       0.0700
25 H25      -1.1945     1.9002     0.3490 H      1 <0>       0.1100
26 H26      -0.6265    -2.3730    -1.1057 H      1 <0>       0.4400
27 H27       1.6180    -6.1817    -4.1565 H      1 <0>       0.1500
28 H28       0.8391    -6.7226    -5.6416 H      1 <0>       0.1400
29 H29      -0.3953    -8.8144    -5.2564 H      1 <0>       0.1300
30 H30       0.7966   -10.9664    -5.2377 H      1 <0>       0.1300
31 H31       3.2281   -11.0406    -5.6039 H      1 <0>       0.1300
32 H32       4.4813    -8.9616    -5.9984 H      1 <0>       0.1300
33 H33       4.4500    -3.9644    -6.4983 H      1 <0>       0.1400
34 H34       3.7786    -1.8982    -5.3876 H      1 <0>       0.1300
35 H35       1.9379    -0.9313    -3.3671 H      1 <0>       0.4400
@<TRIPOS>BOND
1    1    2 1
2    1   23 1
3    1   24 1
4    1   25 1
5    2    3 1
6    3    4 2
7    3    5 am
8    5    6 1
9    5   26 1
10    6   22 1
11    6    7 2
12    7    8 1
13    8   21 ar
14    8    9 ar
15    9   10 ar
16    9   27 1
17   10   11 1
18   10   19 ar
19   11   12 2
20   11   13 1
21   13   18 ar
22   13   14 ar
23   14   15 ar
24   14   28 1
25   15   16 ar
26   15   29 1
27   16   17 ar
28   16   30 1
29   17   18 ar
30   17   31 1
31   18   32 1
32   19   20 ar
33   19   33 1
34   20   21 ar
35   20   34 1
36   21   22 1
37   22   35 1
