@<TRIPOS>MOLECULE
ZINC000003830500
41   43    0    0    0
SMALL
USER_CHARGES
NO_NAME
@<TRIPOS>ATOM
1 C1       -0.0184     1.5028     0.0103 C.3    1 <0>      -0.0700
2 C2        0.0021    -0.0041     0.0020 C.2    1 <0>      -0.1800
3 C3       -1.1826    -0.6020     0.0048 C.2    1 <0>       0.0800
4 C4       -2.4122     0.2047     0.0676 C.2    1 <0>       0.5200
5 O5       -2.3413     1.4251     0.1172 O.co2  1 <0>      -0.6600
6 O6       -3.5051    -0.3452     0.0703 O.co2  1 <0>      -0.6600
7 N7       -1.2657    -1.9996    -0.0523 N.am   1 <0>      -0.5400
8 C8       -2.0650    -2.9964    -0.4110 C.2    1 <0>       0.5200
9 O9       -3.2638    -3.0558    -0.5854 O.2    1 <0>      -0.4400
10 C10      -0.9711    -4.0320    -0.5276 C.3    1 <0>       0.1200
11 H11      -1.1550    -4.9471     0.0352 H      1 <0>       0.1600
12 N12      -0.5086    -4.2729    -1.8967 N.am   1 <0>      -0.6600
13 C13      -0.8845    -5.3914    -2.5479 C.2    1 <0>       0.5100
14 O14      -1.6055    -6.1985    -2.0006 O.2    1 <0>      -0.5100
15 C15      -0.4087    -5.6392    -3.9562 C.3    1 <0>       0.0700
16 H16      -0.4280    -4.7042    -4.5161 H      1 <0>       0.1700
17 N17      -1.2912    -6.6174    -4.6062 N.4    1 <0>      -0.6200
18 H18      -0.9727    -6.7833    -5.5491 H      1 <0>       0.4400
19 H19      -1.2733    -7.4829    -4.0879 H      1 <0>       0.4400
20 H20      -2.2337    -6.2578    -4.6279 H      1 <0>       0.4500
21 C21       0.9989    -6.1763    -3.9237 C.ar   1 <0>      -0.1500
22 C22       1.2223    -7.5139    -3.6554 C.ar   1 <0>      -0.1100
23 C23       2.5136    -8.0065    -3.6256 C.ar   1 <0>      -0.1100
24 C24       3.5813    -7.1618    -3.8646 C.ar   1 <0>      -0.0800
25 C25       3.3579    -5.8245    -4.1338 C.ar   1 <0>      -0.1000
26 C26       2.0664    -5.3327    -4.1679 C.ar   1 <0>      -0.0800
27 C27      -0.1791    -2.9791     0.2273 C.3    1 <0>       0.1100
28 H28      -0.0236    -3.2007     1.2832 H      1 <0>       0.1400
29 S29       1.3152    -2.3660    -0.6206 S.3    1 <0>      -0.2600
30 C30       1.3533    -0.6406    -0.0143 C.3    1 <0>      -0.0100
31 H31       1.0042     1.8801     0.0026 H      1 <0>       0.0300
32 H32      -0.5455     1.8639    -0.8728 H      1 <0>       0.0800
33 H33      -0.5286     1.8543     0.9071 H      1 <0>       0.0800
34 H34       0.0681    -3.6274    -2.3345 H      1 <0>       0.4200
35 H35       0.3881    -8.1738    -3.4686 H      1 <0>       0.1200
36 H36       2.6881    -9.0514    -3.4152 H      1 <0>       0.1400
37 H37       4.5902    -7.5466    -3.8406 H      1 <0>       0.1400
38 H38       4.1921    -5.1644    -4.3202 H      1 <0>       0.1400
39 H39       1.8918    -4.2879    -4.3782 H      1 <0>       0.1400
40 H40       2.0247    -0.0585    -0.6456 H      1 <0>       0.1200
41 H41       1.7348    -0.6327     1.0067 H      1 <0>       0.1000
@<TRIPOS>BOND
1    1    2 1
2    1   31 1
3    1   32 1
4    1   33 1
5    2   30 1
6    2    3 2
7    3    4 1
8    3    7 1
9    4    5 ar
10    4    6 ar
11    7   27 1
12    7    8 am
13    8    9 2
14    8   10 1
15   10   11 1
16   10   12 1
17   10   27 1
18   12   13 am
19   12   34 1
20   13   14 2
21   13   15 1
22   15   16 1
23   15   17 1
24   15   21 1
25   17   18 1
26   17   19 1
27   17   20 1
28   21   26 ar
29   21   22 ar
30   22   23 ar
31   22   35 1
32   23   24 ar
33   23   36 1
34   24   25 ar
35   24   37 1
36   25   26 ar
37   25   38 1
38   26   39 1
39   27   28 1
40   27   29 1
41   29   30 1
42   30   40 1
43   30   41 1
