@<TRIPOS>MOLECULE
ZINC000100018854
47    50    1     0     0
SMALL
USER_CHARGES
@<TRIPOS>ATOM
1      C1     -0.0178    1.4608    0.0101 C.3      1 ZINC000100018854    0.0900
2      N2      0.0021   -0.0041    0.0020 N.pl3    1 ZINC000100018854   -0.3200
3      N3      0.0074   -0.7230   -1.0616 N.2      1 ZINC000100018854   -0.2100
4      C4      0.0268   -2.0094   -0.7862 C.2      1 ZINC000100018854   -0.0100
5      C5      0.0385   -3.1201   -1.7550 C.2      1 ZINC000100018854    0.6100
6      O6      0.0569   -4.2705   -1.3610 O.2      1 ZINC000100018854   -0.5300
7      N7      0.0287   -2.8608   -3.0775 N.am     1 ZINC000100018854   -0.7200
8      C8      0.0404   -3.9714   -4.0463 C.3      1 ZINC000100018854    0.1600
9      H9      0.6507   -4.7707   -3.6230 H        1 ZINC000100018854    0.0900
10     C10    -1.3905   -4.4547   -4.2534 C.3      1 ZINC000100018854   -0.1600
11     C11    -1.5028   -5.4206   -5.4284 C.3      1 ZINC000100018854    0.1200
12     H12    -1.9475   -6.3570   -5.0848 H        1 ZINC000100018854    0.0800
13     C13    -2.4262   -4.8028   -6.4906 C.3      1 ZINC000100018854   -0.1100
14     C14    -1.7878   -3.5232   -7.0340 C.3      1 ZINC000100018854   -0.1200
15     C15    -0.3923   -3.8200   -7.5857 C.3      1 ZINC000100018854   -0.1100
16     C16     0.4620   -4.4737   -6.4882 C.3      1 ZINC000100018854    0.1200
17     H17     1.4362   -4.7268   -6.9128 H        1 ZINC000100018854    0.0800
18     C18     0.6528   -3.4753   -5.3512 C.3      1 ZINC000100018854   -0.1600
19     N19    -0.2104   -5.6820   -6.0404 N.3      1 ZINC000100018854   -0.5900
20     C20     0.6158   -6.6831   -5.4034 C.3      1 ZINC000100018854    0.0600
21     C21     0.0351   -2.1189    0.6788 C.ar     1 ZINC000100018854   -0.1100
22     C22     0.0541   -3.1654    1.5955 C.ar     1 ZINC000100018854   -0.0400
23     C23     0.0563   -2.8913    2.9350 C.ar     1 ZINC000100018854   -0.1400
24     C24     0.0394   -1.5781    3.3865 C.ar     1 ZINC000100018854   -0.0800
25     C25     0.0200   -0.5277    2.4961 C.ar     1 ZINC000100018854   -0.1200
26     C26     0.0234   -0.7839    1.1289 C.ar     1 ZINC000100018854    0.0600
27     H27     1.0048    1.8381    0.0023 H        1 ZINC000100018854    0.0800
28     H28    -0.5450    1.8219   -0.8730 H        1 ZINC000100018854    0.1000
29     H29    -0.5280    1.8123    0.9069 H        1 ZINC000100018854    0.0900
30     H30     0.0140   -1.9432   -3.3918 H        1 ZINC000100018854    0.4000
31     H31    -1.7356   -4.9579   -3.3433 H        1 ZINC000100018854    0.0700
32     H32    -2.0433   -3.5940   -4.4294 H        1 ZINC000100018854    0.0700
33     H33    -2.5682   -5.5169   -7.2999 H        1 ZINC000100018854    0.0700
34     H34    -3.3868   -4.5684   -6.0337 H        1 ZINC000100018854    0.0600
35     H35    -2.4135   -3.1195   -7.8339 H        1 ZINC000100018854    0.0600
36     H36    -1.7165   -2.7823   -6.2366 H        1 ZINC000100018854    0.0600
37     H37    -0.4678   -4.5001   -8.4327 H        1 ZINC000100018854    0.0700
38     H38     0.0827   -2.8917   -7.9012 H        1 ZINC000100018854    0.0700
39     H39     0.1954   -2.5203   -5.6276 H        1 ZINC000100018854    0.0700
40     H40     1.7251   -3.3046   -5.2025 H        1 ZINC000100018854    0.0700
41     H41     1.0837   -6.2570   -4.5159 H        1 ZINC000100018854    0.0200
42     H42    -0.0014   -7.5341   -5.1156 H        1 ZINC000100018854    0.0700
43     H43     1.3880   -7.0128   -6.0985 H        1 ZINC000100018854    0.0700
44     H44     0.0666   -4.1888    1.2508 H        1 ZINC000100018854    0.1400
45     H45     0.0711   -3.7026    3.6478 H        1 ZINC000100018854    0.1300
46     H46     0.0411   -1.3783    4.4478 H        1 ZINC000100018854    0.1300
47     H47     0.0066    0.4899    2.8576 H        1 ZINC000100018854    0.1300
@<TRIPOS>BOND
1     1     2     1
2     1     27    1
3     1     28    1
4     1     29    1
5     2     26    1
6     2     3     1
7     3     4     2
8     4     5     1
9     4     21    1
10    5     6     2
11    5     7     am
12    7     8     1
13    7     30    1
14    8     9     1
15    8     18    1
16    8     10    1
17    10    11    1
18    10    31    1
19    10    32    1
20    11    12    1
21    11    19    1
22    11    13    1
23    13    14    1
24    13    33    1
25    13    34    1
26    14    15    1
27    14    35    1
28    14    36    1
29    15    16    1
30    15    37    1
31    15    38    1
32    16    17    1
33    16    18    1
34    16    19    1
35    18    39    1
36    18    40    1
37    19    20    1
38    20    41    1
39    20    42    1
40    20    43    1
41    21    26    ar
42    21    22    ar
43    22    23    ar
44    22    44    1
45    23    24    ar
46    23    45    1
47    24    25    ar
48    24    46    1
49    25    26    ar
50    25    47    1
@<TRIPOS>SUBSTRUCTURE
1   ZINC000100018854 1     RESIDUE    1   A     ZIN   1
