@<TRIPOS>MOLECULE
ZINC000003872055
23    24    1     0     0
SMALL
USER_CHARGES
@<TRIPOS>ATOM
1      N1     -0.0204    1.6518    0.0111 N.am     1 ZINC000003872055   -1.2400
2      S2      0.0021   -0.0041    0.0020 S.o2     1 ZINC000003872055    2.7000
3      O3      1.3604   -0.3860   -0.1664 O.2      1 ZINC000003872055   -0.9500
4      O4     -0.7920   -0.4222    1.1038 O.2      1 ZINC000003872055   -0.9300
5      C5     -0.8462   -0.5292   -1.4503 C.ar     1 ZINC000003872055   -0.7100
6      C6     -0.1622   -1.2082   -2.4438 C.ar     1 ZINC000003872055    0.1300
7      C7     -0.8289   -1.6155   -3.5773 C.ar     1 ZINC000003872055   -0.7300
8      C8     -2.1851   -1.3501   -3.7357 C.ar     1 ZINC000003872055    0.2900
9      C9     -2.8679   -0.6703   -2.7348 C.ar     1 ZINC000003872055   -0.1700
10     C10    -2.1977   -0.2676   -1.5951 C.ar     1 ZINC000003872055    0.1200
11     Cl11   -3.0519    0.5824   -0.3455 Cl       1 ZINC000003872055   -0.0100
12     N12    -2.8452   -1.7600   -4.8908 N.pl3    1 ZINC000003872055   -0.6800
13     C13    -2.3881   -2.7135   -5.7394 C.2      1 ZINC000003872055    0.5000
14     N14    -1.1744   -3.1194   -5.8307 N.am     1 ZINC000003872055   -0.9200
15     S15     0.0122   -2.4856   -4.8609 S.o2     1 ZINC000003872055    2.6200
16     O16     0.6914   -1.5074   -5.6363 O.2      1 ZINC000003872055   -0.9400
17     O17     0.6655   -3.5872   -4.2455 O.2      1 ZINC000003872055   -0.9300
18     H18     0.8130    2.1481    0.0058 H        1 ZINC000003872055    0.4300
19     H19    -0.8669    2.1253    0.0177 H        1 ZINC000003872055    0.4200
20     H20     0.8912   -1.4176   -2.3303 H        1 ZINC000003872055    0.1700
21     H21    -3.9215   -0.4606   -2.8452 H        1 ZINC000003872055    0.1600
22     H22    -3.6906   -1.3344   -5.1029 H        1 ZINC000003872055    0.4400
23     H23    -3.1107   -3.1724   -6.3980 H        1 ZINC000003872055    0.2200
@<TRIPOS>BOND
1     1     2     am
2     1     18    1
3     1     19    1
4     2     3     2
5     2     4     2
6     2     5     1
7     5     10    ar
8     5     6     ar
9     6     7     ar
10    6     20    1
11    7     15    1
12    7     8     ar
13    8     9     ar
14    8     12    1
15    9     10    ar
16    9     21    1
17    10    11    1
18    12    13    1
19    12    22    1
20    13    14    2
21    13    23    1
22    14    15    am
23    15    16    2
24    15    17    2
@<TRIPOS>SUBSTRUCTURE
1   ZINC000003872055 1     RESIDUE    1   A     ZIN   1
