@<TRIPOS>MOLECULE
ZINC000000584092
46   47    0    0    0
SMALL
USER_CHARGES
NO_NAME
@<TRIPOS>ATOM
1 C1       -5.3830     2.0257    -0.3235 C.3    1 <0>      -0.1500
2 C2       -4.6917     0.9058    -1.1039 C.3    1 <0>       0.0800
3 C3       -3.6242     1.5068    -2.0206 C.3    1 <0>      -0.1700
4 O4       -4.0669    -0.0178    -0.1740 O.3    1 <0>      -0.3500
5 C5       -3.9691    -1.2993    -0.5611 C.2    1 <0>       0.4400
6 O6       -4.3915    -1.6381    -1.6412 O.2    1 <0>      -0.4800
7 C7       -3.3323    -2.3156     0.3515 C.3    1 <0>       0.1300
8 C8       -1.8871    -1.9058     0.6418 C.3    1 <0>      -0.1400
9 C9       -4.1162    -2.3847     1.6637 C.3    1 <0>      -0.2000
10 O10      -3.3463    -3.5976    -0.2797 O.3    1 <0>      -0.2800
11 C11      -4.5596    -4.1116    -0.6035 C.ar   1 <0>       0.1700
12 C12      -5.7059    -3.3434    -0.4325 C.ar   1 <0>      -0.2000
13 C13      -6.9388    -3.8607    -0.7602 C.ar   1 <0>      -0.0200
14 C14      -7.0373    -5.1609    -1.2657 C.ar   1 <0>      -0.2000
15 C15      -8.3560    -5.7192    -1.6187 C.2    1 <0>       0.4400
16 O16      -9.2839    -4.9747    -1.8703 O.2    1 <0>      -0.4500
17 C17      -8.5496    -7.1829    -1.6665 C.ar   1 <0>      -0.1500
18 C18      -7.6991    -8.0267    -0.9479 C.ar   1 <0>      -0.0700
19 C19      -7.8853    -9.3919    -0.9963 C.ar   1 <0>      -0.1200
20 C20      -8.9128    -9.9273    -1.7557 C.ar   1 <0>      -0.0100
21 Cl21     -9.1403   -11.6475    -1.8118 Cl     1 <0>      -0.0600
22 C22      -9.7599    -9.0959    -2.4701 C.ar   1 <0>      -0.1200
23 C23      -9.5875    -7.7287    -2.4257 C.ar   1 <0>      -0.0500
24 C24      -5.8818    -5.9299    -1.4361 C.ar   1 <0>      -0.0400
25 C25      -4.6524    -5.4028    -1.1109 C.ar   1 <0>      -0.1600
26 H26      -5.8520     2.7191    -1.0217 H      1 <0>       0.0800
27 H27      -6.1435     1.5976     0.3295 H      1 <0>       0.0700
28 H28      -4.6459     2.5582     0.2775 H      1 <0>       0.0700
29 H29      -5.4288     0.3733    -1.7049 H      1 <0>       0.0900
30 H30      -4.0932     2.2001    -2.7187 H      1 <0>       0.0800
31 H31      -2.8872     2.0393    -1.4195 H      1 <0>       0.0700
32 H32      -3.1318     0.7089    -2.5765 H      1 <0>       0.0600
33 H33      -1.8707    -0.8939     1.0466 H      1 <0>       0.1000
34 H34      -1.4528    -2.5942     1.3667 H      1 <0>       0.0900
35 H35      -1.3082    -1.9373    -0.2812 H      1 <0>       0.0800
36 H36      -5.1025    -2.8090     1.4758 H      1 <0>       0.0800
37 H37      -3.5797    -3.0130     2.3747 H      1 <0>       0.0900
38 H38      -4.2248    -1.3812     2.0753 H      1 <0>       0.0900
39 H39      -5.6290    -2.3395    -0.0417 H      1 <0>       0.1300
40 H40      -7.8287    -3.2635    -0.6267 H      1 <0>       0.1300
41 H41      -6.8973    -7.6105    -0.3561 H      1 <0>       0.1500
42 H42      -7.2284   -10.0453    -0.4412 H      1 <0>       0.1400
43 H43     -10.5592    -9.5193    -3.0602 H      1 <0>       0.1400
44 H44     -10.2485    -7.0816    -2.9831 H      1 <0>       0.1400
45 H45      -5.9534    -6.9345    -1.8263 H      1 <0>       0.1400
46 H46      -3.7595    -5.9960    -1.2421 H      1 <0>       0.1400
@<TRIPOS>BOND
1    1    2 1
2    1   26 1
3    1   27 1
4    1   28 1
5    2    3 1
6    2    4 1
7    2   29 1
8    3   30 1
9    3   31 1
10    3   32 1
11    4    5 1
12    5    6 2
13    5    7 1
14    7    8 1
15    7    9 1
16    7   10 1
17    8   33 1
18    8   34 1
19    8   35 1
20    9   36 1
21    9   37 1
22    9   38 1
23   10   11 1
24   11   25 ar
25   11   12 ar
26   12   13 ar
27   12   39 1
28   13   14 ar
29   13   40 1
30   14   15 1
31   14   24 ar
32   15   16 2
33   15   17 1
34   17   23 ar
35   17   18 ar
36   18   19 ar
37   18   41 1
38   19   20 ar
39   19   42 1
40   20   21 1
41   20   22 ar
42   22   23 ar
43   22   43 1
44   23   44 1
45   24   25 ar
46   24   45 1
47   25   46 1
