@<TRIPOS>MOLECULE
ZINC000001530635
42   43    0    0    0
SMALL
USER_CHARGES
NO_NAME
@<TRIPOS>ATOM
1 C1        0.4051     1.5797     0.1625 C.3    1 <0>      -0.1500
2 C2        0.2434     0.0836     0.0806 C.2    1 <0>       0.4600
3 O3        0.1932    -0.5749     1.0924 O.2    1 <0>      -0.5100
4 O4        0.1552    -0.5173    -1.1164 O.3    1 <0>      -0.3600
5 C5        0.0006    -1.9611    -1.1194 C.3    1 <0>       0.0700
6 C6       -0.0818    -2.4622    -2.5627 C.3    1 <0>      -0.0800
7 C7        1.2504    -2.2038    -3.2692 C.3    1 <0>      -0.1300
8 C8        1.1225    -2.5705    -4.7490 C.3    1 <0>       0.1100
9 N9        2.3558    -2.2061    -5.4508 N.pl3  1 <0>      -0.4800
10 C10       2.5870    -1.0432    -6.1246 C.2    1 <0>       0.2600
11 N11       3.7866    -1.0496    -6.6279 N.2    1 <0>      -0.4600
12 C12       4.4035    -2.2155    -6.3109 C.ar   1 <0>      -0.1100
13 C13       5.6611    -2.7616    -6.5713 C.ar   1 <0>       0.2700
14 N14       5.9431    -3.9622    -6.0957 N.ar   1 <0>      -0.5600
15 C15       5.0569    -4.6461    -5.3827 C.ar   1 <0>       0.5900
16 N16       5.4039    -5.9005    -4.9079 N.pl3  1 <0>      -0.8200
17 N17       3.8528    -4.1693    -5.1100 N.ar   1 <0>      -0.5800
18 C18       3.4917    -2.9700    -5.5455 C.ar   1 <0>       0.3200
19 C19      -0.3777    -3.9633    -2.5652 C.3    1 <0>       0.0700
20 O20      -1.6950    -4.1979    -2.0013 O.3    1 <0>      -0.3600
21 C21      -2.1096    -5.4726    -1.9309 C.2    1 <0>       0.4600
22 C22      -3.4658    -5.7934    -1.3574 C.3    1 <0>      -0.1500
23 O23      -1.3954    -6.3629    -2.3275 O.2    1 <0>      -0.5100
24 H24       1.4657     1.8311     0.1619 H      1 <0>       0.1100
25 H25      -0.0792     2.0450    -0.6960 H      1 <0>       0.1000
26 H26      -0.0543     1.9450     1.0810 H      1 <0>       0.1000
27 H27       0.8568    -2.4191    -0.6241 H      1 <0>       0.0700
28 H28      -0.9128    -2.2298    -0.5887 H      1 <0>       0.0800
29 H29      -0.8789    -1.9338    -3.0857 H      1 <0>       0.1000
30 H30       1.5119    -1.1496    -3.1773 H      1 <0>       0.0900
31 H31       2.0293    -2.8126    -2.8100 H      1 <0>       0.0800
32 H32       0.9536    -3.6431    -4.8443 H      1 <0>       0.1000
33 H33       0.2826    -2.0302    -5.1859 H      1 <0>       0.1000
34 H34       1.8778    -0.2350    -6.2259 H      1 <0>       0.2200
35 H35       6.3897    -2.2140    -7.1507 H      1 <0>       0.1800
36 H36       6.2824    -6.2652    -5.0982 H      1 <0>       0.4200
37 H37       4.7684    -6.4141    -4.3852 H      1 <0>       0.4100
38 H38      -0.3487    -4.3376    -3.5885 H      1 <0>       0.0800
39 H39       0.3713    -4.4823    -1.9671 H      1 <0>       0.0800
40 H40      -4.2084    -5.7872    -2.1553 H      1 <0>       0.1100
41 H41      -3.4399    -6.7790    -0.8928 H      1 <0>       0.1000
42 H42      -3.7299    -5.0459    -0.6093 H      1 <0>       0.1000
@<TRIPOS>BOND
1    1    2 1
2    1   24 1
3    1   25 1
4    1   26 1
5    2    3 2
6    2    4 1
7    4    5 1
8    5    6 1
9    5   27 1
10    5   28 1
11    6    7 1
12    6   19 1
13    6   29 1
14    7    8 1
15    7   30 1
16    7   31 1
17    8    9 1
18    8   32 1
19    8   33 1
20    9   18 1
21    9   10 1
22   10   11 2
23   10   34 1
24   11   12 1
25   12   18 ar
26   12   13 ar
27   13   14 ar
28   13   35 1
29   14   15 ar
30   15   16 1
31   15   17 ar
32   16   36 1
33   16   37 1
34   17   18 ar
35   19   20 1
36   19   38 1
37   19   39 1
38   20   21 1
39   21   22 1
40   21   23 2
41   22   40 1
42   22   41 1
43   22   42 1
