@<TRIPOS>MOLECULE
ZINC000003812306
69   71    0    0    0
SMALL
USER_CHARGES
NO_NAME
@<TRIPOS>ATOM
1 C1      -11.1597    -1.8931    -7.2763 C.3    1 <0>      -0.1500
2 C2      -10.3440    -2.3002    -6.0475 C.3    1 <0>       0.0600
3 O3       -9.9743    -3.7003    -6.1541 O.3    1 <0>      -0.3600
4 C4       -9.2505    -4.2177    -5.1491 C.2    1 <0>       0.4300
5 O5       -8.9362    -3.5236    -4.2113 O.2    1 <0>      -0.5000
6 C6       -8.8299    -5.6642    -5.1903 C.3    1 <0>       0.1000
7 H7       -8.2161    -5.8391    -6.0740 H      1 <0>       0.1200
8 C8      -10.0723    -6.5552    -5.2478 C.3    1 <0>      -0.0900
9 C9       -9.6458    -8.0150    -5.4152 C.3    1 <0>      -0.0800
10 C10     -10.8696    -8.8926    -5.4719 C.ar   1 <0>      -0.0700
11 C11     -11.3988    -9.4166    -4.3073 C.ar   1 <0>      -0.1100
12 C12     -12.5214   -10.2216    -4.3593 C.ar   1 <0>      -0.1200
13 C13     -13.1149   -10.5022    -5.5757 C.ar   1 <0>      -0.1300
14 C14     -12.5862    -9.9775    -6.7402 C.ar   1 <0>      -0.1200
15 C15     -11.4662    -9.1690    -6.6878 C.ar   1 <0>      -0.1200
16 N16      -8.0540    -5.9831    -3.9844 N.3    1 <0>      -0.6300
17 C17      -6.6386    -5.6319    -4.1608 C.3    1 <0>       0.0700
18 H18      -6.3459    -5.8115    -5.1953 H      1 <0>       0.0900
19 C19      -6.4338    -4.1540    -3.8221 C.3    1 <0>      -0.1700
20 C20      -5.7929    -6.4790    -3.2452 C.2    1 <0>       0.5100
21 O21      -6.2217    -6.8145    -2.1615 O.2    1 <0>      -0.4500
22 N22      -4.5600    -6.8636    -3.6307 N.am   1 <0>      -0.6000
23 C23      -3.9638    -6.3749    -4.8784 C.3    1 <0>       0.1500
24 C24      -2.5285    -5.9799    -4.6354 C.ar   1 <0>      -0.1000
25 C25      -1.8761    -5.2702    -5.6346 C.ar   1 <0>      -0.1700
26 C26      -0.5564    -4.8877    -5.4778 C.ar   1 <0>       0.0900
27 O27       0.0758    -4.1916    -6.4602 O.3    1 <0>      -0.3100
28 C28      -0.6839    -3.8874    -7.6317 C.3    1 <0>       0.0300
29 C29       0.1203    -5.2195    -4.3079 C.ar   1 <0>       0.1000
30 O30       1.4197    -4.8537    -4.1429 O.3    1 <0>      -0.3100
31 C31       2.0485    -5.2294    -2.9159 C.3    1 <0>       0.0300
32 C32      -0.5352    -5.9224    -3.3142 C.ar   1 <0>      -0.1800
33 C33      -1.8632    -6.3003    -3.4727 C.ar   1 <0>      -0.0400
34 C34      -2.5169    -7.0399    -2.3349 C.3    1 <0>      -0.0700
35 C35      -3.7554    -7.7865    -2.8131 C.3    1 <0>       0.0800
36 H36      -3.4587    -8.6442    -3.4168 H      1 <0>       0.0600
37 C37      -4.5598    -8.2520    -1.6268 C.2    1 <0>       0.5200
38 O38      -4.2212    -7.9363    -0.4989 O.co2  1 <0>      -0.7000
39 O39      -5.5492    -8.9443    -1.7950 O.co2  1 <0>      -0.6800
40 H40     -11.4372    -0.8421    -7.1963 H      1 <0>       0.0800
41 H41     -10.5621    -2.0437    -8.1753 H      1 <0>       0.0700
42 H42     -12.0610    -2.5036    -7.3326 H      1 <0>       0.0700
43 H43      -9.4427    -1.6897    -5.9912 H      1 <0>       0.0700
44 H44     -10.9416    -2.1496    -5.1485 H      1 <0>       0.0700
45 H45     -10.6406    -6.4464    -4.3240 H      1 <0>       0.0700
46 H46     -10.6931    -6.2588    -6.0933 H      1 <0>       0.0800
47 H47      -9.0775    -8.1238    -6.3390 H      1 <0>       0.0700
48 H48      -9.0250    -8.3113    -4.5697 H      1 <0>       0.1000
49 H49     -10.9350    -9.1974    -3.3569 H      1 <0>       0.1300
50 H50     -12.9344   -10.6316    -3.4495 H      1 <0>       0.1200
51 H51     -13.9916   -11.1317    -5.6164 H      1 <0>       0.1200
52 H52     -13.0498   -10.1970    -7.6906 H      1 <0>       0.1200
53 H53     -11.0531    -8.7589    -7.5976 H      1 <0>       0.1200
54 H54      -8.4418    -5.5251    -3.1733 H      1 <0>       0.3700
55 H55      -6.8181    -3.9538    -2.8219 H      1 <0>       0.0700
56 H56      -5.3704    -3.9172    -3.8569 H      1 <0>       0.0600
57 H57      -6.9670    -3.5380    -4.5462 H      1 <0>       0.0700
58 H58      -4.0008    -7.1626    -5.6310 H      1 <0>       0.0700
59 H59      -4.5232    -5.5091    -5.2329 H      1 <0>       0.0800
60 H60      -2.4035    -5.0150    -6.5419 H      1 <0>       0.1300
61 H61      -0.0626    -3.3311    -8.3335 H      1 <0>       0.1000
62 H62      -1.0189    -4.8138    -8.0983 H      1 <0>       0.0500
63 H63      -1.5500    -3.2852    -7.3569 H      1 <0>       0.0500
64 H64       2.0352    -6.3149    -2.8183 H      1 <0>       0.0600
65 H65       3.0800    -4.8770    -2.9135 H      1 <0>       0.1000
66 H66       1.5101    -4.7827    -2.0800 H      1 <0>       0.0600
67 H67      -0.0102    -6.1806    -2.4063 H      1 <0>       0.1400
68 H68      -1.8068    -7.7527    -1.9157 H      1 <0>       0.0800
69 H69      -2.8060    -6.3268    -1.5629 H      1 <0>       0.0900
@<TRIPOS>BOND
1    1    2 1
2    1   40 1
3    1   41 1
4    1   42 1
5    2    3 1
6    2   43 1
7    2   44 1
8    3    4 1
9    4    5 2
10    4    6 1
11    6    7 1
12    6    8 1
13    6   16 1
14    8    9 1
15    8   45 1
16    8   46 1
17    9   10 1
18    9   47 1
19    9   48 1
20   10   15 ar
21   10   11 ar
22   11   12 ar
23   11   49 1
24   12   13 ar
25   12   50 1
26   13   14 ar
27   13   51 1
28   14   15 ar
29   14   52 1
30   15   53 1
31   16   17 1
32   16   54 1
33   17   18 1
34   17   19 1
35   17   20 1
36   19   55 1
37   19   56 1
38   19   57 1
39   20   21 2
40   20   22 am
41   22   35 1
42   22   23 1
43   23   24 1
44   23   58 1
45   23   59 1
46   24   33 ar
47   24   25 ar
48   25   26 ar
49   25   60 1
50   26   27 1
51   26   29 ar
52   27   28 1
53   28   61 1
54   28   62 1
55   28   63 1
56   29   30 1
57   29   32 ar
58   30   31 1
59   31   64 1
60   31   65 1
61   31   66 1
62   32   33 ar
63   32   67 1
64   33   34 1
65   34   35 1
66   34   68 1
67   34   69 1
68   35   36 1
69   35   37 1
70   37   38 ar
71   37   39 ar
