@<TRIPOS>MOLECULE
ZINC000000968301
51    53    1     0     0
SMALL
USER_CHARGES
@<TRIPOS>ATOM
1      C1     -0.0363    1.6003    0.2502 C.3      1 ZINC000000968301   -0.0400
2      N2     -0.0201    0.1340    0.1630 N.4      1 ZINC000000968301   -0.2700
3      C3     -1.3975   -0.3767    0.1490 C.3      1 ZINC000000968301   -0.0500
4      C4      0.6747   -0.2833   -1.0735 C.3      1 ZINC000000968301   -0.0100
5      C5      2.1320   -0.5675   -0.6317 C.3      1 ZINC000000968301   -0.1600
6      C6      1.9171   -1.2021    0.7675 C.3      1 ZINC000000968301    0.0700
7      H7      1.6857   -2.2635    0.6779 H        1 ZINC000000968301    0.1200
8      O8      3.0851   -1.0022    1.6067 O.3      1 ZINC000000968301   -0.3300
9      C9      4.0224   -1.9628    1.5853 C.2      1 ZINC000000968301    0.4500
10     O10     3.8719   -2.9383    0.8885 O.2      1 ZINC000000968301   -0.4700
11     C11     5.2624   -1.8245    2.4305 C.3      1 ZINC000000968301    0.2100
12     O12     4.9320   -1.1716    3.6579 O.3      1 ZINC000000968301   -0.5300
13     C13     5.8251   -3.1913    2.7243 C.ar     1 ZINC000000968301   -0.1400
14     C14     6.0689   -3.5722    4.0306 C.ar     1 ZINC000000968301   -0.1000
15     C15     6.5851   -4.8260    4.3001 C.ar     1 ZINC000000968301   -0.1200
16     C16     6.8569   -5.6990    3.2633 C.ar     1 ZINC000000968301   -0.1000
17     C17     6.6122   -5.3185    1.9571 C.ar     1 ZINC000000968301   -0.1200
18     C18     6.0920   -4.0663    1.6879 C.ar     1 ZINC000000968301   -0.0800
19     C19     6.3039   -0.9956    1.6761 C.3      1 ZINC000000968301   -0.0800
20     C20     6.5453   -1.5837    0.2637 C.3      1 ZINC000000968301   -0.1300
21     C21     7.0895   -0.3667   -0.5248 C.3      1 ZINC000000968301   -0.1300
22     C22     6.2701    0.8267    0.0083 C.3      1 ZINC000000968301   -0.1300
23     C23     5.7706    0.4268    1.4077 C.3      1 ZINC000000968301   -0.1200
24     C24     0.7042   -0.4240    1.3196 C.3      1 ZINC000000968301   -0.0100
25     H25     0.9871    1.9755    0.2511 H        1 ZINC000000968301    0.1200
26     H26    -0.5724    2.0093   -0.6062 H        1 ZINC000000968301    0.1200
27     H27    -0.5355    1.9041    1.1703 H        1 ZINC000000968301    0.1200
28     H28    -1.9315    0.0417   -0.7041 H        1 ZINC000000968301    0.1300
29     H29    -1.3811   -1.4637    0.0699 H        1 ZINC000000968301    0.1200
30     H30    -1.9017   -0.0870    1.0709 H        1 ZINC000000968301    0.1200
31     H31     0.2182   -1.1862   -1.4791 H        1 ZINC000000968301    0.1400
32     H32     0.6514    0.5189   -1.8111 H        1 ZINC000000968301    0.1400
33     H33     2.6153   -1.2711   -1.3095 H        1 ZINC000000968301    0.1200
34     H34     2.7048    0.3569   -0.5574 H        1 ZINC000000968301    0.1100
35     H35     4.2754   -1.6422    4.1894 H        1 ZINC000000968301    0.3900
36     H36     5.8566   -2.8902    4.8406 H        1 ZINC000000968301    0.1300
37     H37     6.7762   -5.1233    5.3206 H        1 ZINC000000968301    0.1300
38     H38     7.2608   -6.6783    3.4738 H        1 ZINC000000968301    0.1300
39     H39     6.8249   -6.0004    1.1471 H        1 ZINC000000968301    0.1300
40     H40     5.9008   -3.7690    0.6674 H        1 ZINC000000968301    0.1300
41     H41     7.2367   -0.9535    2.2385 H        1 ZINC000000968301    0.1100
42     H42     7.2853   -2.3831    0.2994 H        1 ZINC000000968301    0.0800
43     H43     5.6113   -1.9395   -0.1713 H        1 ZINC000000968301    0.0700
44     H44     8.1504   -0.2229   -0.3199 H        1 ZINC000000968301    0.0700
45     H45     6.9208   -0.4982   -1.5936 H        1 ZINC000000968301    0.0700
46     H46     6.9015    1.7126    0.0763 H        1 ZINC000000968301    0.0700
47     H47     5.4227    1.0212   -0.6492 H        1 ZINC000000968301    0.0600
48     H48     4.6808    0.4272    1.4294 H        1 ZINC000000968301    0.0700
49     H49     6.1596    1.1186    2.1548 H        1 ZINC000000968301    0.0800
50     H50     1.0454    0.3831    1.9680 H        1 ZINC000000968301    0.1500
51     H51     0.0526   -1.0984    1.8751 H        1 ZINC000000968301    0.1400
@<TRIPOS>BOND
1     1     2     1
2     1     25    1
3     1     26    1
4     1     27    1
5     2     24    1
6     2     3     1
7     2     4     1
8     3     28    1
9     3     29    1
10    3     30    1
11    4     5     1
12    4     31    1
13    4     32    1
14    5     6     1
15    5     33    1
16    5     34    1
17    6     7     1
18    6     8     1
19    6     24    1
20    8     9     1
21    9     10    2
22    9     11    1
23    11    12    1
24    11    13    1
25    11    19    1
26    12    35    1
27    13    18    ar
28    13    14    ar
29    14    15    ar
30    14    36    1
31    15    16    ar
32    15    37    1
33    16    17    ar
34    16    38    1
35    17    18    ar
36    17    39    1
37    18    40    1
38    19    23    1
39    19    20    1
40    19    41    1
41    20    21    1
42    20    42    1
43    20    43    1
44    21    22    1
45    21    44    1
46    21    45    1
47    22    23    1
48    22    46    1
49    22    47    1
50    23    48    1
51    23    49    1
52    24    50    1
53    24    51    1
@<TRIPOS>SUBSTRUCTURE
1   ZINC000000968301 1     RESIDUE    1   A     ZIN   1
