@<TRIPOS>MOLECULE
ZINC000000896740
40    42    1     0     0
SMALL
USER_CHARGES
@<TRIPOS>ATOM
1      Cl1     0.0021   -0.0041    0.0020 Cl       1 ZINC000000896740   -0.0400
2      C2     -0.0215    1.7317    0.0116 C.ar     1 ZINC000000896740   -0.0200
3      C3     -1.2286    2.4072    0.0325 C.ar     1 ZINC000000896740   -0.1000
4      C4     -1.2475    3.7894    0.0396 C.ar     1 ZINC000000896740   -0.0700
5      C5     -0.0607    4.4974    0.0262 C.ar     1 ZINC000000896740   -0.1000
6      C6     -0.0822    6.0042    0.0345 C.3      1 ZINC000000896740    0.1000
7      O7     -1.4359    6.4612    0.0564 O.3      1 ZINC000000896740   -0.3600
8      C8     -1.5691    7.8839    0.0658 C.3      1 ZINC000000896740    0.1200
9      H9     -0.7095    8.3259    0.5696 H        1 ZINC000000896740    0.1000
10     C10    -1.6373    8.3993   -1.3732 C.3      1 ZINC000000896740    0.0700
11     N11    -0.3644    8.1336   -2.0479 N.pl3    1 ZINC000000896740   -0.4100
12     C12     0.7241    8.9627   -2.0845 C.2      1 ZINC000000896740    0.0200
13     C13     1.6701    8.3323   -2.8064 C.2      1 ZINC000000896740    0.0100
14     N14     1.1728    7.1505   -3.2000 N.pl3    1 ZINC000000896740   -0.4700
15     H15     1.6442    6.4930   -3.7352 H        1 ZINC000000896740    0.4700
16     C16    -0.0437    7.0224   -2.7451 C.cat    1 ZINC000000896740    0.2900
17     C17    -2.8306    8.2656    0.7964 C.ar     1 ZINC000000896740   -0.1000
18     C18    -3.8788    7.3688    0.8800 C.ar     1 ZINC000000896740   -0.0600
19     C19    -5.0365    7.7183    1.5497 C.ar     1 ZINC000000896740   -0.1000
20     C20    -5.1464    8.9660    2.1370 C.ar     1 ZINC000000896740   -0.0100
21     Cl21   -6.6001    9.4046    2.9784 Cl       1 ZINC000000896740   -0.0300
22     C22    -4.0972    9.8641    2.0540 C.ar     1 ZINC000000896740   -0.1000
23     C23    -2.9371    9.5119    1.3883 C.ar     1 ZINC000000896740   -0.0100
24     Cl24   -1.6200   10.6379    1.2841 Cl       1 ZINC000000896740   -0.0500
25     C25     1.1474    3.8229    0.0058 C.ar     1 ZINC000000896740   -0.0200
26     Cl26    2.6382    4.7123   -0.0109 Cl       1 ZINC000000896740   -0.0500
27     C27     1.1671    2.4399    0.0040 C.ar     1 ZINC000000896740   -0.1000
28     H28    -2.1564    1.8545    0.0429 H        1 ZINC000000896740    0.1500
29     H29    -2.1901    4.3163    0.0552 H        1 ZINC000000896740    0.1500
30     H30     0.4392    6.3702    0.9190 H        1 ZINC000000896740    0.0800
31     H31     0.4136    6.3795   -0.8607 H        1 ZINC000000896740    0.0500
32     H32    -2.4426    7.8909   -1.9034 H        1 ZINC000000896740    0.1400
33     H33    -1.8277    9.4725   -1.3661 H        1 ZINC000000896740    0.1400
34     H34     0.8080    9.9357   -1.6232 H        1 ZINC000000896740    0.2200
35     H35     2.6563    8.7118   -3.0294 H        1 ZINC000000896740    0.2300
36     H36    -0.6893    6.1716   -2.9054 H        1 ZINC000000896740    0.2600
37     H37    -3.7935    6.3945    0.4217 H        1 ZINC000000896740    0.1500
38     H38    -5.8556    7.0173    1.6141 H        1 ZINC000000896740    0.1500
39     H39    -4.1825   10.8383    2.5123 H        1 ZINC000000896740    0.1500
40     H40     2.1097    1.9130   -0.0120 H        1 ZINC000000896740    0.1500
@<TRIPOS>BOND
1     1     2     1
2     2     27    ar
3     2     3     ar
4     3     4     ar
5     3     28    1
6     4     5     ar
7     4     29    1
8     5     6     1
9     5     25    ar
10    6     7     1
11    6     30    1
12    6     31    1
13    7     8     1
14    8     9     1
15    8     10    1
16    8     17    1
17    10    11    1
18    10    32    1
19    10    33    1
20    11    16    ar
21    11    12    1
22    12    13    2
23    12    34    1
24    13    14    1
25    13    35    1
26    14    15    1
27    14    16    ar
28    16    36    1
29    17    23    ar
30    17    18    ar
31    18    19    ar
32    18    37    1
33    19    20    ar
34    19    38    1
35    20    21    1
36    20    22    ar
37    22    23    ar
38    22    39    1
39    23    24    1
40    25    26    1
41    25    27    ar
42    27    40    1
@<TRIPOS>SUBSTRUCTURE
1   ZINC000000896740 1     RESIDUE    1   A     ZIN   1
