@<TRIPOS>MOLECULE
ZINC000019166988
35    35    1     0     0
SMALL
USER_CHARGES
@<TRIPOS>ATOM
1      C1     -0.0178    1.4648    0.0101 C.3      1 ZINC000019166988    0.0300
2      N2      0.0021   -0.0041    0.0020 N.3      1 ZINC000019166988   -0.5500
3      N3      0.6990   -0.5222    1.1682 N.3      1 ZINC000019166988   -0.5400
4      C4      0.7189   -1.9910    1.1601 C.3      1 ZINC000019166988    0.0900
5      C5      1.4478   -2.4902    2.3810 C.ar     1 ZINC000019166988   -0.0600
6      C6      2.8151   -2.6956    2.3309 C.ar     1 ZINC000019166988   -0.1200
7      C7      3.4883   -3.1529    3.4448 C.ar     1 ZINC000019166988   -0.0600
8      C8      2.7871   -3.4080    4.6244 C.ar     1 ZINC000019166988   -0.1300
9      C9      3.5021   -3.8977    5.8221 C.2      1 ZINC000019166988    0.5600
10     O10     4.7033   -4.0791    5.7810 O.2      1 ZINC000019166988   -0.5300
11     N11     2.8221   -4.1431    6.9596 N.am     1 ZINC000019166988   -0.7200
12     C12     3.5307   -4.6284    8.1464 C.3      1 ZINC000019166988    0.1400
13     C13     4.1048   -3.4394    8.9194 C.3      1 ZINC000019166988   -0.1700
14     C14     2.5576   -5.3972    9.0425 C.3      1 ZINC000019166988   -0.1600
15     C15     1.4078   -3.1982    4.6683 C.ar     1 ZINC000019166988   -0.0900
16     C16     0.7475   -2.7357    3.5488 C.ar     1 ZINC000019166988   -0.1000
17     H17     1.0047    1.8421    0.0024 H        1 ZINC000019166988    0.0700
18     H18    -0.5450    1.8259   -0.8730 H        1 ZINC000019166988    0.0800
19     H19    -0.5280    1.8163    0.9069 H        1 ZINC000019166988    0.0300
20     H20    -0.9333   -0.3781   -0.0560 H        1 ZINC000019166988    0.3500
21     H21     1.6343   -0.1482    1.2263 H        1 ZINC000019166988    0.3500
22     H22    -0.3037   -2.3683    1.1679 H        1 ZINC000019166988    0.0800
23     H23     1.2291   -2.3425    0.2633 H        1 ZINC000019166988    0.0500
24     H24     3.3565   -2.4979    1.4176 H        1 ZINC000019166988    0.1300
25     H25     4.5555   -3.3135    3.4042 H        1 ZINC000019166988    0.1400
26     H26     1.8635   -3.9984    6.9924 H        1 ZINC000019166988    0.4000
27     H27     4.3420   -5.2889    7.8405 H        1 ZINC000019166988    0.0900
28     H28     3.2935   -2.7789    9.2253 H        1 ZINC000019166988    0.0600
29     H29     4.6320   -3.8005    9.8024 H        1 ZINC000019166988    0.0700
30     H30     4.7981   -2.8917    8.2810 H        1 ZINC000019166988    0.0600
31     H31     2.1485   -6.2443    8.4919 H        1 ZINC000019166988    0.0600
32     H32     3.0848   -5.7583    9.9256 H        1 ZINC000019166988    0.0800
33     H33     1.7462   -4.7368    9.3485 H        1 ZINC000019166988    0.0600
34     H34     0.8594   -3.3941    5.5779 H        1 ZINC000019166988    0.1300
35     H35    -0.3196   -2.5727    3.5816 H        1 ZINC000019166988    0.1300
@<TRIPOS>BOND
1     1     2     1
2     1     17    1
3     1     18    1
4     1     19    1
5     2     3     1
6     2     20    1
7     3     4     1
8     3     21    1
9     4     5     1
10    4     22    1
11    4     23    1
12    5     16    ar
13    5     6     ar
14    6     7     ar
15    6     24    1
16    7     8     ar
17    7     25    1
18    8     9     1
19    8     15    ar
20    9     10    2
21    9     11    am
22    11    12    1
23    11    26    1
24    12    13    1
25    12    14    1
26    12    27    1
27    13    28    1
28    13    29    1
29    13    30    1
30    14    31    1
31    14    32    1
32    14    33    1
33    15    16    ar
34    15    34    1
35    16    35    1
@<TRIPOS>SUBSTRUCTURE
1   ZINC000019166988 1     RESIDUE    1   A     ZIN   1
