@<TRIPOS>MOLECULE
ZINC000006036847
24   24    0    0    0
SMALL
USER_CHARGES
NO_NAME
@<TRIPOS>ATOM
1 C1       -0.0187     1.5258     0.0104 C.3    1 <0>      -0.1800
2 C2        0.0021    -0.0041     0.0020 C.3    1 <0>       0.0300
3 H3        0.5293    -0.3651     0.8851 H      1 <0>       0.1400
4 N4       -1.3761    -0.5125     0.0124 N.4    1 <0>      -0.6400
5 H5       -1.8641    -0.1783    -0.8050 H      1 <0>       0.4300
6 H6       -1.3624    -1.5214     0.0069 H      1 <0>       0.4300
7 H7       -1.8484    -0.1871     0.8426 H      1 <0>       0.4400
8 C8        0.7182    -0.4975    -1.2568 C.3    1 <0>      -0.1000
9 C9        0.8473    -1.9981    -1.2057 C.ar   1 <0>      -0.1300
10 C10       1.9579    -2.5768    -0.6205 C.ar   1 <0>      -0.1100
11 C11       2.0763    -3.9532    -0.5737 C.ar   1 <0>      -0.1100
12 C12       1.0839    -4.7510    -1.1116 C.ar   1 <0>      -0.1000
13 C13      -0.0272    -4.1724    -1.6960 C.ar   1 <0>      -0.1100
14 C14      -0.1477    -2.7959    -1.7390 C.ar   1 <0>      -0.1400
15 H15       1.0039     1.9031     0.0027 H      1 <0>       0.1100
16 H16      -0.5459     1.8868    -0.8726 H      1 <0>       0.0800
17 H17      -0.5289     1.8773     0.9072 H      1 <0>       0.0800
18 H18       0.1430    -0.2121    -2.1375 H      1 <0>       0.1000
19 H19       1.7103    -0.0491    -1.3098 H      1 <0>       0.1200
20 H20       2.7333    -1.9534    -0.2002 H      1 <0>       0.1300
21 H21       2.9444    -4.4053    -0.1171 H      1 <0>       0.1300
22 H22       1.1767    -5.8264    -1.0757 H      1 <0>       0.1300
23 H23      -0.8025    -4.7957    -2.1166 H      1 <0>       0.1300
24 H24      -1.0157    -2.3438    -2.1956 H      1 <0>       0.1200
@<TRIPOS>BOND
1    1    2 1
2    1   15 1
3    1   16 1
4    1   17 1
5    2    3 1
6    2    4 1
7    2    8 1
8    4    5 1
9    4    6 1
10    4    7 1
11    8    9 1
12    8   18 1
13    8   19 1
14    9   14 ar
15    9   10 ar
16   10   11 ar
17   10   20 1
18   11   12 ar
19   11   21 1
20   12   13 ar
21   12   22 1
22   13   14 ar
23   13   23 1
24   14   24 1
