@<TRIPOS>MOLECULE
ZINC000000057513
43    44    1     0     0
SMALL
USER_CHARGES
@<TRIPOS>ATOM
1      C1     -0.0173    1.4248    0.0099 C.3      1 ZINC000000057513    0.0300
2      O2      0.0021   -0.0041    0.0020 O.3      1 ZINC000000057513   -0.3200
3      C3      0.6258   -0.6184    1.0415 C.ar     1 ZINC000000057513    0.1300
4      C4      1.2022    0.1384    2.0513 C.ar     1 ZINC000000057513   -0.2100
5      C5      1.8353   -0.4884    3.1070 C.ar     1 ZINC000000057513   -0.0500
6      C6      1.8951   -1.8688    3.1577 C.ar     1 ZINC000000057513   -0.1500
7      C7      2.5867   -2.5500    4.3104 C.3      1 ZINC000000057513    0.1800
8      N8      1.6200   -2.7967    5.3831 N.pl3    1 ZINC000000057513   -0.5800
9      C9      0.8645   -4.0515    5.4141 C.3      1 ZINC000000057513    0.1300
10     C10     1.6402   -5.0940    6.2217 C.3      1 ZINC000000057513    0.0400
11     N11     0.8827   -6.3522    6.2528 N.3      1 ZINC000000057513   -0.5400
12     C12     1.6943   -7.4417    6.8116 C.3      1 ZINC000000057513    0.0300
13     C13    -0.3716   -6.1932    7.0008 C.3      1 ZINC000000057513    0.0200
14     C14     1.4204   -1.8443    6.3673 C.ar     1 ZINC000000057513    0.5700
15     N15     0.5462   -2.0857    7.3332 N.ar     1 ZINC000000057513   -0.5700
16     C16     0.3321   -1.1969    8.2892 C.ar     1 ZINC000000057513    0.1900
17     C17     1.0350   -0.0024    8.2715 C.ar     1 ZINC000000057513   -0.2900
18     C18     1.9417    0.2178    7.2466 C.ar     1 ZINC000000057513    0.1900
19     N19     2.1120   -0.7150    6.3242 N.ar     1 ZINC000000057513   -0.5700
20     C20     1.3210   -2.6254    2.1528 C.ar     1 ZINC000000057513   -0.0600
21     C21     0.6822   -2.0034    1.0976 C.ar     1 ZINC000000057513   -0.1600
22     H22     1.0053    1.8021    0.0021 H        1 ZINC000000057513    0.0600
23     H23    -0.5445    1.7859   -0.8732 H        1 ZINC000000057513    0.1000
24     H24    -0.5275    1.7763    0.9067 H        1 ZINC000000057513    0.0500
25     H25     1.1564    1.2167    2.0118 H        1 ZINC000000057513    0.1300
26     H26     2.2842    0.1003    3.8934 H        1 ZINC000000057513    0.1300
27     H27     3.0056   -3.4983    3.9736 H        1 ZINC000000057513    0.0900
28     H28     3.3874   -1.9109    4.6827 H        1 ZINC000000057513    0.1000
29     H29    -0.1060   -3.8798    5.8796 H        1 ZINC000000057513    0.0900
30     H30     0.7203   -4.4140    4.3963 H        1 ZINC000000057513    0.0800
31     H31     2.6108   -5.2657    5.7562 H        1 ZINC000000057513    0.0700
32     H32     1.7844   -4.7315    7.2395 H        1 ZINC000000057513    0.0400
33     H33     1.9923   -7.1880    7.8289 H        1 ZINC000000057513    0.0200
34     H34     1.1095   -8.3615    6.8230 H        1 ZINC000000057513    0.0700
35     H35     2.5835   -7.5842    6.1974 H        1 ZINC000000057513    0.0700
36     H36    -0.9843   -5.4280    6.5242 H        1 ZINC000000057513    0.0700
37     H37    -0.9127   -7.1394    7.0082 H        1 ZINC000000057513    0.0700
38     H38    -0.1485   -5.8942    8.0250 H        1 ZINC000000057513    0.0300
39     H39    -0.3820   -1.3993    9.0737 H        1 ZINC000000057513    0.1600
40     H40     0.8793    0.7408    9.0395 H        1 ZINC000000057513    0.1400
41     H41     2.5052    1.1382    7.2036 H        1 ZINC000000057513    0.1700
42     H42     1.3687   -3.7035    2.1948 H        1 ZINC000000057513    0.1300
43     H43     0.2339   -2.5948    0.3129 H        1 ZINC000000057513    0.1300
@<TRIPOS>BOND
1     1     2     1
2     1     22    1
3     1     23    1
4     1     24    1
5     2     3     1
6     3     21    ar
7     3     4     ar
8     4     5     ar
9     4     25    1
10    5     6     ar
11    5     26    1
12    6     7     1
13    6     20    ar
14    7     8     1
15    7     27    1
16    7     28    1
17    8     9     1
18    8     14    1
19    9     10    1
20    9     29    1
21    9     30    1
22    10    11    1
23    10    31    1
24    10    32    1
25    11    12    1
26    11    13    1
27    12    33    1
28    12    34    1
29    12    35    1
30    13    36    1
31    13    37    1
32    13    38    1
33    14    19    ar
34    14    15    ar
35    15    16    ar
36    16    17    ar
37    16    39    1
38    17    18    ar
39    17    40    1
40    18    19    ar
41    18    41    1
42    20    21    ar
43    20    42    1
44    21    43    1
@<TRIPOS>SUBSTRUCTURE
1   ZINC000000057513 1     RESIDUE    1   A     ZIN   1
