@<TRIPOS>MOLECULE
ZINC000000006251
47    49    1     0     0
SMALL
USER_CHARGES
@<TRIPOS>ATOM
1      C1     -1.1085   -0.7418    2.7825 C.2      1 ZINC000000006251   -0.2000
2      C2     -0.4609   -1.2360    1.7566 C.2      1 ZINC000000006251   -0.1200
3      C3      0.4668   -2.4224    1.9145 C.3      1 ZINC000000006251   -0.0800
4      C4      0.1204   -3.4501    0.8311 C.3      1 ZINC000000006251    0.0400
5      N5      0.1553   -2.8013   -0.4856 N.3      1 ZINC000000006251   -0.5300
6      C6      0.0577   -3.7937   -1.5643 C.3      1 ZINC000000006251    0.0600
7      H7     -0.1669   -3.2884   -2.5036 H        1 ZINC000000006251    0.1000
8      C8     -1.0579   -4.7898   -1.2414 C.3      1 ZINC000000006251   -0.1900
9      C9      1.3870   -4.5405   -1.6921 C.3      1 ZINC000000006251    0.1900
10     O10     1.6007   -5.3359   -0.5243 O.3      1 ZINC000000006251   -0.5200
11     C11     2.5273   -3.5307   -1.8371 C.3      1 ZINC000000006251    0.1500
12     N12     3.8003   -4.2457   -1.9574 N.pl3    1 ZINC000000006251   -0.3700
13     C13     4.7073   -4.1162   -2.9412 C.2      1 ZINC000000006251    0.2400
14     N14     5.7033   -4.9245   -2.6840 N.2      1 ZINC000000006251   -0.5400
15     C15     5.4694   -5.5836   -1.5499 C.2      1 ZINC000000006251    0.1800
16     N16     4.3184   -5.1982   -1.0648 N.2      1 ZINC000000006251   -0.2800
17     C17     1.3477   -5.4317   -2.9067 C.ar     1 ZINC000000006251   -0.1600
18     C18     1.5028   -6.7976   -2.7663 C.ar     1 ZINC000000006251   -0.0400
19     C19     1.4665   -7.6164   -3.8794 C.ar     1 ZINC000000006251   -0.1600
20     C20     1.2747   -7.0686   -5.1364 C.ar     1 ZINC000000006251    0.1400
21     F21     1.2388   -7.8691   -6.2241 F        1 ZINC000000006251   -0.1300
22     C22     1.1192   -5.7003   -5.2782 C.ar     1 ZINC000000006251   -0.1900
23     C23     1.1504   -4.8821   -4.1625 C.ar     1 ZINC000000006251    0.1300
24     F24     0.9988   -3.5466   -4.2994 F        1 ZINC000000006251   -0.1300
25     C25    -0.8931   -1.7812   -0.6126 C.3      1 ZINC000000006251    0.0600
26     C26    -0.6199   -0.6439    0.3718 C.3      1 ZINC000000006251   -0.0800
27     H27    -1.7692    0.1020    2.6485 H        1 ZINC000000006251    0.1000
28     H28    -0.9852   -1.1810    3.7614 H        1 ZINC000000006251    0.1000
29     H29     1.5009   -2.0987    1.7969 H        1 ZINC000000006251    0.0800
30     H30     0.3302   -2.8672    2.9002 H        1 ZINC000000006251    0.0700
31     H31     0.8464   -4.2627    0.8553 H        1 ZINC000000006251    0.1100
32     H32    -0.8777   -3.8485    1.0137 H        1 ZINC000000006251    0.0300
33     H33    -2.0048   -4.2578   -1.1504 H        1 ZINC000000006251    0.0700
34     H34    -1.1303   -5.5261   -2.0418 H        1 ZINC000000006251    0.0600
35     H35    -0.8332   -5.2951   -0.3021 H        1 ZINC000000006251    0.0700
36     H36     0.9144   -5.9993   -0.3693 H        1 ZINC000000006251    0.3700
37     H37     2.3651   -2.9250   -2.7287 H        1 ZINC000000006251    0.1100
38     H38     2.5548   -2.8851   -0.9593 H        1 ZINC000000006251    0.1200
39     H39     4.6273   -3.4599   -3.7951 H        1 ZINC000000006251    0.2100
40     H40     6.1262   -6.3145   -1.1019 H        1 ZINC000000006251    0.2100
41     H41     1.6528   -7.2258   -1.7862 H        1 ZINC000000006251    0.1500
42     H42     1.5882   -8.6838   -3.7686 H        1 ZINC000000006251    0.1500
43     H43     0.9695   -5.2721   -6.2584 H        1 ZINC000000006251    0.1500
44     H44    -0.8981   -1.3898   -1.6299 H        1 ZINC000000006251    0.0800
45     H45    -1.8626   -2.2266   -0.3893 H        1 ZINC000000006251    0.0400
46     H46    -1.4541    0.0576    0.3637 H        1 ZINC000000006251    0.0700
47     H47     0.2981   -0.1275    0.0914 H        1 ZINC000000006251    0.0800
@<TRIPOS>BOND
1     1     2     2
2     1     27    1
3     1     28    1
4     2     26    1
5     2     3     1
6     3     4     1
7     3     29    1
8     3     30    1
9     4     5     1
10    4     31    1
11    4     32    1
12    5     6     1
13    5     25    1
14    6     7     1
15    6     8     1
16    6     9     1
17    8     33    1
18    8     34    1
19    8     35    1
20    9     10    1
21    9     11    1
22    9     17    1
23    10    36    1
24    11    12    1
25    11    37    1
26    11    38    1
27    12    16    1
28    12    13    1
29    13    14    2
30    13    39    1
31    14    15    1
32    15    16    2
33    15    40    1
34    17    23    ar
35    17    18    ar
36    18    19    ar
37    18    41    1
38    19    20    ar
39    19    42    1
40    20    21    1
41    20    22    ar
42    22    23    ar
43    22    43    1
44    23    24    1
45    25    26    1
46    25    44    1
47    25    45    1
48    26    46    1
49    26    47    1
@<TRIPOS>SUBSTRUCTURE
1   ZINC000000006251 1     RESIDUE    1   A     ZIN   1
