@<TRIPOS>MOLECULE
ZINC000012503076
32    32    1     0     0
SMALL
USER_CHARGES
@<TRIPOS>ATOM
1      C1     -0.0184    1.5028    0.0103 C.3      1 ZINC000012503076   -0.1300
2      C2      0.0021   -0.0041    0.0020 C.2      1 ZINC000012503076   -0.0500
3      C3     -1.1407   -0.6848    0.0093 C.2      1 ZINC000012503076   -0.2400
4      C4     -2.4241    0.0331    0.0254 C.2      1 ZINC000012503076    0.5500
5      O5     -2.4406    1.2493    0.0321 O.2      1 ZINC000012503076   -0.5200
6      N6     -3.5820   -0.6566    0.0327 N.am     1 ZINC000012503076   -0.5700
7      C7     -3.5621   -2.1214    0.0247 C.3      1 ZINC000012503076    0.1100
8      C8     -3.5414   -2.6391    1.4643 C.3      1 ZINC000012503076   -0.1800
9      C9     -4.8023    0.0260    0.0481 C.ar     1 ZINC000012503076    0.1400
10     C10    -5.4239    0.3672   -1.1460 C.ar     1 ZINC000012503076   -0.1100
11     C11    -6.6292    1.0415   -1.1274 C.ar     1 ZINC000012503076   -0.1200
12     C12    -7.2169    1.3768    0.0784 C.ar     1 ZINC000012503076   -0.1100
13     C13    -6.6003    1.0390    1.2694 C.ar     1 ZINC000012503076   -0.1200
14     C14    -5.3983    0.3594    1.2578 C.ar     1 ZINC000012503076   -0.0800
15     C15    -4.7274   -0.0088    2.5560 C.3      1 ZINC000012503076   -0.1100
16     H16     1.0042    1.8801    0.0026 H        1 ZINC000012503076    0.0500
17     H17    -0.5455    1.8639   -0.8728 H        1 ZINC000012503076    0.0800
18     H18    -0.5286    1.8543    0.9071 H        1 ZINC000012503076    0.0800
19     H19     0.9446   -0.5313   -0.0098 H        1 ZINC000012503076    0.1300
20     H20    -1.1261   -1.7646    0.0033 H        1 ZINC000012503076    0.1300
21     H21    -4.4520   -2.4941   -0.4827 H        1 ZINC000012503076    0.0800
22     H22    -2.6723   -2.4698   -0.4996 H        1 ZINC000012503076    0.0900
23     H23    -3.5267   -3.7290    1.4583 H        1 ZINC000012503076    0.0700
24     H24    -2.6516   -2.2664    1.9717 H        1 ZINC000012503076    0.0600
25     H25    -4.4313   -2.2907    1.9885 H        1 ZINC000012503076    0.0700
26     H26    -4.9651    0.1059   -2.0882 H        1 ZINC000012503076    0.1200
27     H27    -7.1129    1.3074   -2.0557 H        1 ZINC000012503076    0.1300
28     H28    -8.1594    1.9041    0.0902 H        1 ZINC000012503076    0.1300
29     H29    -7.0617    1.3030    2.2095 H        1 ZINC000012503076    0.1300
30     H30    -5.0713   -0.9922    2.8766 H        1 ZINC000012503076    0.0700
31     H31    -3.6470   -0.0305    2.4133 H        1 ZINC000012503076    0.0700
32     H32    -4.9786    0.7299    3.3171 H        1 ZINC000012503076    0.0700
@<TRIPOS>BOND
1     1     2     1
2     1     16    1
3     1     17    1
4     1     18    1
5     2     3     2
6     2     19    1
7     3     4     1
8     3     20    1
9     4     5     2
10    4     6     am
11    6     7     1
12    6     9     1
13    7     8     1
14    7     21    1
15    7     22    1
16    8     23    1
17    8     24    1
18    8     25    1
19    9     14    ar
20    9     10    ar
21    10    11    ar
22    10    26    1
23    11    12    ar
24    11    27    1
25    12    13    ar
26    12    28    1
27    13    14    ar
28    13    29    1
29    14    15    1
30    15    30    1
31    15    31    1
32    15    32    1
@<TRIPOS>SUBSTRUCTURE
1   ZINC000012503076 1     RESIDUE    1   A     ZIN   1
