@<TRIPOS>MOLECULE
ZINC000000002159
31    32    1     0     0
SMALL
USER_CHARGES
@<TRIPOS>ATOM
1      C1     -0.0184    1.5028    0.0103 C.3      1 ZINC000000002159   -0.0800
2      C2      0.0021   -0.0041    0.0020 C.2      1 ZINC000000002159   -0.2600
3      C3     -1.1526   -0.7039    0.0037 C.2      1 ZINC000000002159    0.1800
4      N4     -1.1160   -2.0718   -0.0039 N.am     1 ZINC000000002159   -0.5300
5      C5     -2.3687   -2.8312   -0.0021 C.3      1 ZINC000000002159    0.3100
6      H6     -2.4328   -3.4615    0.8849 H        1 ZINC000000002159    0.1100
7      C7     -2.4905   -3.6862   -1.2891 C.3      1 ZINC000000002159   -0.1900
8      C8     -4.0230   -3.8664   -1.4150 C.3      1 ZINC000000002159    0.0800
9      H9     -4.3334   -3.7773   -2.4560 H        1 ZINC000000002159    0.0900
10     O10    -4.4235   -5.1300   -0.8812 O.3      1 ZINC000000002159   -0.5500
11     C11    -4.6089   -2.7136   -0.5769 C.3      1 ZINC000000002159    0.0900
12     H12    -5.1837   -3.1165    0.2570 H        1 ZINC000000002159    0.1000
13     C13    -5.5072   -1.8380   -1.4528 C.3      1 ZINC000000002159    0.0800
14     O14    -6.1370   -0.8425   -0.6439 O.3      1 ZINC000000002159   -0.5600
15     O15    -3.5030   -1.9411   -0.0763 O.3      1 ZINC000000002159   -0.3600
16     C16     0.0598   -2.7257   -0.0134 C.2      1 ZINC000000002159    0.7000
17     O17     0.0693   -3.9416   -0.0204 O.2      1 ZINC000000002159   -0.5400
18     N18     1.2256   -2.0531   -0.0157 N.am     1 ZINC000000002159   -0.6600
19     C19     1.2322   -0.7047   -0.0135 C.2      1 ZINC000000002159    0.5500
20     O20     2.2865   -0.0953   -0.0160 O.2      1 ZINC000000002159   -0.5100
21     H21     1.0042    1.8801    0.0026 H        1 ZINC000000002159    0.0800
22     H22    -0.5455    1.8639   -0.8728 H        1 ZINC000000002159    0.0700
23     H23    -0.5286    1.8543    0.9071 H        1 ZINC000000002159    0.0700
24     H24    -2.1006   -0.1866    0.0113 H        1 ZINC000000002159    0.1900
25     H25    -2.0897   -3.1519   -2.1505 H        1 ZINC000000002159    0.0900
26     H26    -1.9946   -4.6489   -1.1650 H        1 ZINC000000002159    0.1100
27     H27    -4.0363   -5.8900   -1.3369 H        1 ZINC000000002159    0.3900
28     H28    -4.9048   -1.3539   -2.2215 H        1 ZINC000000002159    0.0600
29     H29    -6.2694   -2.4577   -1.9253 H        1 ZINC000000002159    0.0700
30     H30    -6.7228   -0.2498   -1.1345 H        1 ZINC000000002159    0.3900
31     H31     2.0644   -2.5402   -0.0226 H        1 ZINC000000002159    0.4300
@<TRIPOS>BOND
1     1     2     1
2     1     21    1
3     1     22    1
4     1     23    1
5     2     19    1
6     2     3     2
7     3     4     1
8     3     24    1
9     4     5     1
10    4     16    am
11    5     6     1
12    5     15    1
13    5     7     1
14    7     8     1
15    7     25    1
16    7     26    1
17    8     9     1
18    8     10    1
19    8     11    1
20    10    27    1
21    11    12    1
22    11    13    1
23    11    15    1
24    13    14    1
25    13    28    1
26    13    29    1
27    14    30    1
28    16    17    2
29    16    18    am
30    18    19    am
31    18    31    1
32    19    20    2
@<TRIPOS>SUBSTRUCTURE
1   ZINC000000002159 1     RESIDUE    1   A     ZIN   1
