@<TRIPOS>MOLECULE
ZINC000019144231
50   51    0    0    0
SMALL
USER_CHARGES
NO_NAME
@<TRIPOS>ATOM
1 C1        0.0823     1.4510    -0.2163 C.3    1 <0>      -0.1900
2 C2        0.0237    -0.0664    -0.0289 C.3    1 <0>      -0.0200
3 N3       -1.3740    -0.4850     0.1418 N.4    1 <0>      -0.3900
4 H4       -1.7925     0.0392     0.8955 H      1 <0>       0.4200
5 C5       -2.1159    -0.2330    -1.1009 C.3    1 <0>      -0.0200
6 C6       -3.5996    -0.5332    -0.8788 C.3    1 <0>      -0.1900
7 C7       -1.4206    -1.9189     0.4577 C.3    1 <0>      -0.0200
8 C8       -0.7562    -2.1642     1.8139 C.3    1 <0>      -0.1500
9 C9       -0.8047    -3.6576     2.1429 C.3    1 <0>      -0.1300
10 C10      -0.1402    -3.9029     3.4991 C.3    1 <0>       0.1300
11 H11       0.8696    -3.4928     3.4884 H      1 <0>       0.1000
12 C12      -0.0770    -5.4071     3.7714 C.3    1 <0>      -0.1800
13 N13      -0.9219    -3.2486     4.5513 N.pl3  1 <0>      -0.6800
14 C14      -0.3101    -2.8735     5.7376 C.ar   1 <0>       0.3500
15 C15      -1.0450    -2.2455     6.7710 C.ar   1 <0>      -0.1300
16 C16      -2.4148    -1.9801     6.6344 C.ar   1 <0>      -0.0500
17 C17      -3.0885    -1.3743     7.6516 C.ar   1 <0>      -0.1000
18 C18      -2.4324    -1.0140     8.8275 C.ar   1 <0>       0.0400
19 Cl19     -3.3241    -0.2435    10.1022 Cl     1 <0>       0.0000
20 C20      -1.1020    -1.2578     8.9919 C.ar   1 <0>      -0.1400
21 C21      -0.3752    -1.8818     7.9638 C.ar   1 <0>       0.1900
22 N22       0.9319    -2.1334     8.0992 N.ar   1 <0>      -0.5000
23 H23       1.3795    -1.8790     8.9213 H      1 <0>       0.4500
24 C24       1.6240    -2.7162     7.1477 C.ar   1 <0>       0.2400
25 C25       1.0396    -3.1069     5.9512 C.ar   1 <0>      -0.2700
26 H26       1.1228     1.7753    -0.2311 H      1 <0>       0.1100
27 H27      -0.3953     1.7194    -1.1586 H      1 <0>       0.0800
28 H28      -0.4388     1.9392     0.6072 H      1 <0>       0.0800
29 H29       0.4455    -0.5574    -0.9059 H      1 <0>       0.1300
30 H30       0.5971    -0.3457     0.8550 H      1 <0>       0.1300
31 H31      -1.9958     0.8109    -1.3904 H      1 <0>       0.1300
32 H32      -1.7294    -0.8761    -1.8915 H      1 <0>       0.1300
33 H33      -3.7314    -1.6000    -0.6980 H      1 <0>       0.0800
34 H34      -3.9590     0.0285    -0.0166 H      1 <0>       0.0800
35 H35      -4.1656    -0.2421    -1.7637 H      1 <0>       0.1100
36 H36      -2.4588    -2.2488     0.4968 H      1 <0>       0.1300
37 H37      -0.8905    -2.4782    -0.3132 H      1 <0>       0.1300
38 H38       0.2820    -1.8343     1.7748 H      1 <0>       0.0900
39 H39      -1.2864    -1.6049     2.5847 H      1 <0>       0.0800
40 H40      -1.8429    -3.9875     2.1820 H      1 <0>       0.0900
41 H41      -0.2745    -4.2169     1.3721 H      1 <0>       0.1100
42 H42      -1.0868    -5.8172     3.7821 H      1 <0>       0.0700
43 H43       0.5046    -5.8939     2.9885 H      1 <0>       0.0900
44 H44       0.3964    -5.5819     4.7375 H      1 <0>       0.0700
45 H45      -1.8674    -3.0778     4.4180 H      1 <0>       0.4200
46 H46      -2.9331    -2.2543     5.7274 H      1 <0>       0.1500
47 H47      -4.1438    -1.1702     7.5455 H      1 <0>       0.1600
48 H48      -0.6079    -0.9724     9.9089 H      1 <0>       0.1700
49 H49       2.6771    -2.8995     7.3019 H      1 <0>       0.2100
50 H50       1.6351    -3.5846     5.1872 H      1 <0>       0.1800
@<TRIPOS>BOND
1    1    2 1
2    1   26 1
3    1   27 1
4    1   28 1
5    2    3 1
6    2   29 1
7    2   30 1
8    3    4 1
9    3    5 1
10    3    7 1
11    5    6 1
12    5   31 1
13    5   32 1
14    6   33 1
15    6   34 1
16    6   35 1
17    7    8 1
18    7   36 1
19    7   37 1
20    8    9 1
21    8   38 1
22    8   39 1
23    9   10 1
24    9   40 1
25    9   41 1
26   10   11 1
27   10   12 1
28   10   13 1
29   12   42 1
30   12   43 1
31   12   44 1
32   13   14 1
33   13   45 1
34   14   25 ar
35   14   15 ar
36   15   21 ar
37   15   16 ar
38   16   17 ar
39   16   46 1
40   17   18 ar
41   17   47 1
42   18   19 1
43   18   20 ar
44   20   21 ar
45   20   48 1
46   21   22 ar
47   22   23 1
48   22   24 ar
49   24   25 ar
50   24   49 1
51   25   50 1
