@<TRIPOS>MOLECULE
ZINC000001996784
53   55    0    0    0
SMALL
USER_CHARGES
NO_NAME
@<TRIPOS>ATOM
1 N1       -6.5659    -7.5808    -3.0161 N.pl3  1 <0>      -0.8200
2 C2       -5.7391    -6.4691    -2.9754 C.2    1 <0>       0.3200
3 N3       -5.0996    -6.0569    -1.9251 N.2    1 <0>      -0.5300
4 C4       -4.3533    -4.9759    -2.0665 C.2    1 <0>       0.1200
5 C5       -3.5549    -4.3837    -0.9338 C.3    1 <0>      -0.0600
6 C6       -4.4675    -4.1068     0.2330 C.2    1 <0>       0.5200
7 O7       -5.6498    -4.3649     0.1528 O.2    1 <0>      -0.4900
8 N8       -3.9698    -3.5723     1.3658 N.am   1 <0>      -0.6800
9 C9       -4.8307    -3.2253     2.4128 C.ar   1 <0>       0.1700
10 C10      -4.5636    -2.1071     3.1918 C.ar   1 <0>      -0.1400
11 C11      -5.4154    -1.7674     4.2246 C.ar   1 <0>      -0.0900
12 C12      -6.5329    -2.5396     4.4835 C.ar   1 <0>      -0.1300
13 C13      -7.4599    -2.1662     5.6115 C.3    1 <0>      -0.1000
14 C14      -8.5465    -1.2247     5.0883 C.3    1 <0>      -0.0100
15 N15      -9.4501    -0.8608     6.1879 N.4    1 <0>      -0.5100
16 H16      -9.8786    -1.6945     6.5610 H      1 <0>       0.4300
17 H17      -8.9256    -0.3979     6.9150 H      1 <0>       0.4300
18 C18     -10.4934     0.0432     5.6855 C.3    1 <0>      -0.0400
19 C19     -11.4345     0.4223     6.8307 C.3    1 <0>       0.1400
20 H20     -10.8679     0.9223     7.6162 H      1 <0>       0.1300
21 O21     -12.0414    -0.7586     7.3592 O.3    1 <0>      -0.5500
22 C22     -12.5048     1.3496     6.3153 C.ar   1 <0>      -0.1400
23 C23     -13.6461     0.8315     5.7324 C.ar   1 <0>      -0.1100
24 C24     -14.6279     1.6821     5.2597 C.ar   1 <0>      -0.1100
25 C25     -14.4685     3.0508     5.3703 C.ar   1 <0>      -0.1000
26 C26     -13.3275     3.5688     5.9540 C.ar   1 <0>      -0.1100
27 C27     -12.3477     2.7181     6.4306 C.ar   1 <0>      -0.1000
28 C28      -6.8019    -3.6533     3.7094 C.ar   1 <0>      -0.0900
29 C29      -5.9572    -3.9952     2.6715 C.ar   1 <0>      -0.1200
30 C30      -4.3632    -4.4516    -3.2923 C.2    1 <0>      -0.2900
31 S31      -5.4078    -5.4457    -4.3042 S.3    1 <0>       0.1100
32 H32      -7.0072    -7.8270    -3.8441 H      1 <0>       0.4200
33 H33      -6.7002    -8.1150    -2.2176 H      1 <0>       0.4100
34 H34      -2.7792    -5.0865    -0.6297 H      1 <0>       0.1200
35 H35      -3.0930    -3.4528    -1.2627 H      1 <0>       0.1200
36 H36      -3.0147    -3.4281     1.4552 H      1 <0>       0.4200
37 H37      -3.6906    -1.5041     2.9905 H      1 <0>       0.1300
38 H38      -5.2082    -0.8979     4.8308 H      1 <0>       0.1300
39 H39      -7.9228    -3.0669     6.0146 H      1 <0>       0.1000
40 H40      -6.8933    -1.6661     6.3970 H      1 <0>       0.1000
41 H41      -8.0835    -0.3240     4.6852 H      1 <0>       0.1300
42 H42      -9.1131    -1.7247     4.3028 H      1 <0>       0.1300
43 H43     -10.0304     0.9439     5.2824 H      1 <0>       0.1400
44 H44     -11.0600    -0.4569     4.9000 H      1 <0>       0.1400
45 H45     -12.5628    -1.2554     6.7139 H      1 <0>       0.3900
46 H46     -13.7707    -0.2378     5.6460 H      1 <0>       0.1200
47 H47     -15.5193     1.2774     4.8036 H      1 <0>       0.1300
48 H48     -15.2352     3.7154     5.0003 H      1 <0>       0.1300
49 H49     -13.2029     4.6382     6.0401 H      1 <0>       0.1300
50 H50     -11.4563     3.1229     6.8867 H      1 <0>       0.1300
51 H51      -7.6755    -4.2544     3.9141 H      1 <0>       0.1300
52 H52      -6.1678    -4.8652     2.0673 H      1 <0>       0.1500
53 H53      -3.8218    -3.5729    -3.6105 H      1 <0>       0.1800
@<TRIPOS>BOND
1    1    2 1
2    1   32 1
3    1   33 1
4    2   31 1
5    2    3 2
6    3    4 1
7    4    5 1
8    4   30 2
9    5    6 1
10    5   34 1
11    5   35 1
12    6    7 2
13    6    8 am
14    8    9 1
15    8   36 1
16    9   29 ar
17    9   10 ar
18   10   11 ar
19   10   37 1
20   11   12 ar
21   11   38 1
22   12   13 1
23   12   28 ar
24   13   14 1
25   13   39 1
26   13   40 1
27   14   15 1
28   14   41 1
29   14   42 1
30   15   16 1
31   15   17 1
32   15   18 1
33   18   19 1
34   18   43 1
35   18   44 1
36   19   20 1
37   19   21 1
38   19   22 1
39   21   45 1
40   22   27 ar
41   22   23 ar
42   23   24 ar
43   23   46 1
44   24   25 ar
45   24   47 1
46   25   26 ar
47   25   48 1
48   26   27 ar
49   26   49 1
50   27   50 1
51   28   29 ar
52   28   51 1
53   29   52 1
54   30   31 1
55   30   53 1
