@<TRIPOS>MOLECULE
ZINC000003920657
72    76    1     0     0
SMALL
USER_CHARGES
@<TRIPOS>ATOM
1      C1     -1.8787    2.3721   -2.7714 C.3      1 ZINC000003920657   -0.1500
2      C2     -2.0328    0.9915   -2.1872 C.2      1 ZINC000003920657    0.4500
3      O3     -2.7918    0.8069   -1.2654 O.2      1 ZINC000003920657   -0.5000
4      O4     -1.3270   -0.0330   -2.6909 O.3      1 ZINC000003920657   -0.3300
5      C5     -1.4377   -1.3092   -2.0072 C.3      1 ZINC000003920657    0.0900
6      C6     -2.8522   -1.8227   -2.0889 C.2      1 ZINC000003920657    0.3600
7      C7     -3.6845   -1.5464   -3.3145 C.3      1 ZINC000003920657   -0.2000
8      O8     -3.3187   -2.4557   -1.1724 O.2      1 ZINC000003920657   -0.4300
9      C9     -1.0032   -1.1641   -0.5285 C.3      1 ZINC000003920657   -0.1300
10     C10     0.2611   -2.0473   -0.3547 C.3      1 ZINC000003920657   -0.1200
11     C11     0.8212   -2.1365   -1.7807 C.3      1 ZINC000003920657   -0.0800
12     H12     1.3258   -1.2093   -2.0525 H        1 ZINC000003920657    0.0900
13     C13     1.7282   -3.3324   -2.0365 C.3      1 ZINC000003920657   -0.0500
14     H14     1.2139   -4.2401   -1.7208 H        1 ZINC000003920657    0.1000
15     C15     3.0065   -3.1828   -1.2289 C.3      1 ZINC000003920657   -0.1100
16     C16     4.0931   -4.1398   -1.7178 C.3      1 ZINC000003920657   -0.1000
17     C17     4.3355   -3.8559   -3.1789 C.2      1 ZINC000003920657    0.0300
18     C18     5.5847   -3.8141   -3.6934 C.2      1 ZINC000003920657   -0.2500
19     C19     5.7948   -3.4570   -5.0363 C.2      1 ZINC000003920657    0.3900
20     O20     6.9038   -3.5725   -5.5183 O.2      1 ZINC000003920657   -0.4700
21     C21     4.6689   -2.9343   -5.8875 C.3      1 ZINC000003920657   -0.1700
22     C22     3.3696   -3.6657   -5.5386 C.3      1 ZINC000003920657   -0.0800
23     C23     3.1761   -3.6296   -4.0411 C.2      1 ZINC000003920657   -0.1200
24     C24     1.9794   -3.4034   -3.5213 C.2      1 ZINC000003920657   -0.0500
25     C25     0.8170   -3.2541   -4.4828 C.3      1 ZINC000003920657   -0.0200
26     H26     1.2020   -3.0507   -5.4821 H        1 ZINC000003920657    0.1000
27     C27     0.0263   -4.5367   -4.5078 C.ar     1 ZINC000003920657   -0.1200
28     C28    -1.2388   -4.5565   -5.0659 C.ar     1 ZINC000003920657   -0.0700
29     C29    -1.9661   -5.7303   -5.0904 C.ar     1 ZINC000003920657   -0.1900
30     C30    -1.4255   -6.8918   -4.5536 C.ar     1 ZINC000003920657    0.2100
31     N31    -2.1582   -8.0808   -4.5771 N.pl3    1 ZINC000003920657   -0.6400
32     C32    -3.4983   -8.1037   -5.1685 C.3      1 ZINC000003920657    0.0900
33     C33    -1.5865   -9.3048   -4.0105 C.3      1 ZINC000003920657    0.0900
34     C34    -0.1544   -6.8684   -3.9937 C.ar     1 ZINC000003920657   -0.1900
35     C35     0.5697   -5.6925   -3.9776 C.ar     1 ZINC000003920657   -0.0800
36     C36    -0.1038   -2.1019   -4.0516 C.3      1 ZINC000003920657   -0.0900
37     C37    -0.4717   -2.3217   -2.6182 C.3      1 ZINC000003920657   -0.0400
38     C38    -1.0071   -3.7426   -2.4299 C.3      1 ZINC000003920657   -0.1800
39     H39    -1.0825    2.9013   -2.2480 H        1 ZINC000003920657    0.1100
40     H40    -1.6282    2.2931   -3.8293 H        1 ZINC000003920657    0.1000
41     H41    -2.8141    2.9205   -2.6596 H        1 ZINC000003920657    0.1000
42     H42    -3.4773   -2.3020   -4.0723 H        1 ZINC000003920657    0.1000
43     H43    -4.7415   -1.5770   -3.0503 H        1 ZINC000003920657    0.0900
44     H44    -3.4365   -0.5603   -3.7073 H        1 ZINC000003920657    0.0800
45     H45    -0.7655   -0.1233   -0.3089 H        1 ZINC000003920657    0.0800
46     H46    -1.7975   -1.5141    0.1308 H        1 ZINC000003920657    0.0900
47     H47     0.9780   -1.5670    0.3113 H        1 ZINC000003920657    0.0800
48     H48    -0.0079   -3.0364    0.0160 H        1 ZINC000003920657    0.0800
49     H49     3.3672   -2.1582   -1.3194 H        1 ZINC000003920657    0.0700
50     H50     2.7924   -3.3926   -0.1810 H        1 ZINC000003920657    0.0800
51     H51     5.0108   -3.9758   -1.1529 H        1 ZINC000003920657    0.0900
52     H52     3.7610   -5.1704   -1.5923 H        1 ZINC000003920657    0.0900
53     H53     6.4296   -4.0578   -3.0664 H        1 ZINC000003920657    0.1300
54     H54     4.5434   -1.8668   -5.7064 H        1 ZINC000003920657    0.1000
55     H55     4.9046   -3.0967   -6.9393 H        1 ZINC000003920657    0.0900
56     H56     2.5298   -3.1717   -6.0274 H        1 ZINC000003920657    0.0900
57     H57     3.4320   -4.7010   -5.8736 H        1 ZINC000003920657    0.0800
58     H58    -1.6586   -3.6530   -5.4828 H        1 ZINC000003920657    0.1200
59     H59    -2.9542   -5.7450   -5.5262 H        1 ZINC000003920657    0.1200
60     H60    -3.4233   -8.3424   -6.2294 H        1 ZINC000003920657    0.0500
61     H61    -4.1034   -8.8597   -4.6679 H        1 ZINC000003920657    0.0700
62     H62    -3.9654   -7.1263   -5.0481 H        1 ZINC000003920657    0.0700
63     H63    -1.8521   -9.3755   -2.9557 H        1 ZINC000003920657    0.0500
64     H64    -1.9806  -10.1703   -4.5432 H        1 ZINC000003920657    0.0700
65     H65    -0.5014   -9.2794   -4.1110 H        1 ZINC000003920657    0.0700
66     H66     0.2686   -7.7696   -3.5751 H        1 ZINC000003920657    0.1200
67     H67     1.5580   -5.6736   -3.5424 H        1 ZINC000003920657    0.1200
68     H68     0.4134   -1.1496   -4.1688 H        1 ZINC000003920657    0.0800
69     H69    -1.0128   -2.1082   -4.6532 H        1 ZINC000003920657    0.0700
70     H70    -0.1937   -4.4571   -2.5561 H        1 ZINC000003920657    0.1000
71     H71    -1.4269   -3.8430   -1.4290 H        1 ZINC000003920657    0.0600
72     H72    -1.7822   -3.9399   -3.1705 H        1 ZINC000003920657    0.0700
@<TRIPOS>BOND
1     1     2     1
2     1     39    1
3     1     40    1
4     1     41    1
5     2     3     2
6     2     4     1
7     4     5     1
8     5     37    1
9     5     6     1
10    5     9     1
11    6     7     1
12    6     8     2
13    7     42    1
14    7     43    1
15    7     44    1
16    9     10    1
17    9     45    1
18    9     46    1
19    10    11    1
20    10    47    1
21    10    48    1
22    11    12    1
23    11    37    1
24    11    13    1
25    13    14    1
26    13    24    1
27    13    15    1
28    15    16    1
29    15    49    1
30    15    50    1
31    16    17    1
32    16    51    1
33    16    52    1
34    17    23    1
35    17    18    2
36    18    19    1
37    18    53    1
38    19    20    2
39    19    21    1
40    21    22    1
41    21    54    1
42    21    55    1
43    22    23    1
44    22    56    1
45    22    57    1
46    23    24    2
47    24    25    1
48    25    26    1
49    25    27    1
50    25    36    1
51    27    35    ar
52    27    28    ar
53    28    29    ar
54    28    58    1
55    29    30    ar
56    29    59    1
57    30    31    1
58    30    34    ar
59    31    32    1
60    31    33    1
61    32    60    1
62    32    61    1
63    32    62    1
64    33    63    1
65    33    64    1
66    33    65    1
67    34    35    ar
68    34    66    1
69    35    67    1
70    36    37    1
71    36    68    1
72    36    69    1
73    37    38    1
74    38    70    1
75    38    71    1
76    38    72    1
@<TRIPOS>SUBSTRUCTURE
1   ZINC000003920657 1     RESIDUE    1   A     ZIN   1
