@<TRIPOS>MOLECULE
ZINC000008214573
5     4     1     0     0
SMALL
USER_CHARGES
@<TRIPOS>ATOM
1      O1      0.0021   -0.0041    0.0020 O.2      1 ZINC000008214573   -1.0400
2      S2     -0.0181    1.4841    0.0102 S.o2     1 ZINC000008214573    2.7000
3      O3      1.3782    1.9993   -0.0004 O.3      1 ZINC000008214573   -1.0400
4      O4     -0.7379    1.9771   -1.1956 O.3      1 ZINC000008214573   -1.0400
5      S5     -0.8623    2.0657    1.4941 S.2      1 ZINC000008214573   -1.5700
@<TRIPOS>BOND
1     1     2     2
2     2     3     1
3     2     4     1
4     2     5     2
@<TRIPOS>SUBSTRUCTURE
1   ZINC000008214573 1     RESIDUE    1   A     ZIN   1
