@<TRIPOS>MOLECULE
ZINC000000004028
48    50    1     0     0
SMALL
USER_CHARGES
@<TRIPOS>ATOM
1      C1      0.1315    1.2252   -3.1160 C.3      1 ZINC000000004028   -0.1600
2      C2      0.1313   -0.2884   -2.8926 C.3      1 ZINC000000004028   -0.1500
3      C3      0.5827   -0.5929   -1.4628 C.3      1 ZINC000000004028   -0.0200
4      N4      0.5371   -2.0432   -1.2333 N.4      1 ZINC000000004028   -0.3800
5      H5      0.9056   -2.2505   -0.3172 H        1 ZINC000000004028    0.4200
6      C6     -0.8534   -2.5090   -1.3187 C.3      1 ZINC000000004028   -0.0200
7      C7     -1.6694   -1.8899   -0.1821 C.3      1 ZINC000000004028   -0.0600
8      C8     -3.0587   -2.4737   -0.1852 C.2      1 ZINC000000004028   -0.2200
9      C9     -3.4371   -3.5616    0.4875 C.2      1 ZINC000000004028   -0.1100
10     C10    -4.7678   -3.9099    0.3322 C.2      1 ZINC000000004028   -0.1400
11     C11    -5.4700   -3.1049   -0.4666 C.2      1 ZINC000000004028   -0.1900
12     S12    -4.4310   -1.8205   -1.0704 S.3      1 ZINC000000004028    0.1200
13     C13     1.3456   -2.7258   -2.2523 C.3      1 ZINC000000004028    0.0200
14     H14     0.9531   -2.5005   -3.2438 H        1 ZINC000000004028    0.1400
15     C15     2.8022   -2.2571   -2.1549 C.3      1 ZINC000000004028   -0.1400
16     C16     3.5630   -2.7941   -3.3655 C.3      1 ZINC000000004028   -0.0700
17     C17     3.3414   -4.2764   -3.5155 C.ar     1 ZINC000000004028   -0.1100
18     C18     4.2355   -4.9890   -4.3121 C.ar     1 ZINC000000004028    0.1100
19     O19     5.2667   -4.3412   -4.9154 O.3      1 ZINC000000004028   -0.4900
20     C20     4.0804   -6.3532   -4.4925 C.ar     1 ZINC000000004028   -0.1300
21     C21     3.0316   -7.0100   -3.8788 C.ar     1 ZINC000000004028   -0.0900
22     C22     2.1478   -6.3040   -3.0883 C.ar     1 ZINC000000004028   -0.1200
23     C23     2.3012   -4.9360   -2.9019 C.ar     1 ZINC000000004028   -0.0800
24     C24     1.3068   -4.2339   -2.0142 C.3      1 ZINC000000004028   -0.0900
25     H25    -0.5528    1.6967   -2.4107 H        1 ZINC000000004028    0.0700
26     H26     1.1377    1.6151   -2.9618 H        1 ZINC000000004028    0.0700
27     H27    -0.1901    1.4422   -4.1346 H        1 ZINC000000004028    0.0800
28     H28    -0.8749   -0.6782   -3.0467 H        1 ZINC000000004028    0.0900
29     H29     0.8156   -0.7599   -3.5979 H        1 ZINC000000004028    0.0900
30     H30     1.6020   -0.2342   -1.3194 H        1 ZINC000000004028    0.1300
31     H31    -0.0811   -0.0925   -0.7578 H        1 ZINC000000004028    0.1300
32     H32    -1.2789   -2.2093   -2.2764 H        1 ZINC000000004028    0.1300
33     H33    -0.8785   -3.5954   -1.2340 H        1 ZINC000000004028    0.1400
34     H34    -1.1867   -2.1057    0.7711 H        1 ZINC000000004028    0.1000
35     H35    -1.7285   -0.8107   -0.3233 H        1 ZINC000000004028    0.1000
36     H36    -2.7568   -4.1279    1.1062 H        1 ZINC000000004028    0.1400
37     H37    -5.2043   -4.7686    0.8206 H        1 ZINC000000004028    0.1500
38     H38    -6.5172   -3.2217   -0.7035 H        1 ZINC000000004028    0.1700
39     H39     2.8380   -1.1677   -2.1525 H        1 ZINC000000004028    0.0900
40     H40     3.2511   -2.6417   -1.2390 H        1 ZINC000000004028    0.0900
41     H41     3.2136   -2.2856   -4.2641 H        1 ZINC000000004028    0.0900
42     H42     4.6279   -2.6013   -3.2352 H        1 ZINC000000004028    0.1000
43     H43     6.0735   -4.3052   -4.3836 H        1 ZINC000000004028    0.4000
44     H44     4.7762   -6.9011   -5.1106 H        1 ZINC000000004028    0.1400
45     H45     2.9034   -8.0734   -4.0176 H        1 ZINC000000004028    0.1400
46     H46     1.3286   -6.8202   -2.6100 H        1 ZINC000000004028    0.1300
47     H47     1.5485   -4.4389   -0.9713 H        1 ZINC000000004028    0.1000
48     H48     0.3057   -4.6070   -2.2305 H        1 ZINC000000004028    0.1000
@<TRIPOS>BOND
1     1     2     1
2     1     25    1
3     1     26    1
4     1     27    1
5     2     3     1
6     2     28    1
7     2     29    1
8     3     4     1
9     3     30    1
10    3     31    1
11    4     5     1
12    4     6     1
13    4     13    1
14    6     7     1
15    6     32    1
16    6     33    1
17    7     8     1
18    7     34    1
19    7     35    1
20    8     12    1
21    8     9     2
22    9     10    1
23    9     36    1
24    10    11    2
25    10    37    1
26    11    12    1
27    11    38    1
28    13    14    1
29    13    24    1
30    13    15    1
31    15    16    1
32    15    39    1
33    15    40    1
34    16    17    1
35    16    41    1
36    16    42    1
37    17    23    ar
38    17    18    ar
39    18    19    1
40    18    20    ar
41    19    43    1
42    20    21    ar
43    20    44    1
44    21    22    ar
45    21    45    1
46    22    23    ar
47    22    46    1
48    23    24    1
49    24    47    1
50    24    48    1
@<TRIPOS>SUBSTRUCTURE
1   ZINC000000004028 1     RESIDUE    1   A     ZIN   1
