@<TRIPOS>MOLECULE
ZINC000004474603
51   50    0    0    0
SMALL
USER_CHARGES
NO_NAME
@<TRIPOS>ATOM
1 C1        2.3299     1.0201    -0.8333 C.3    1 <0>      -0.1500
2 C2        2.0803    -0.4696    -1.0769 C.3    1 <0>      -0.1100
3 C3        0.6976    -0.8320    -0.5996 C.2    1 <0>      -0.1600
4 C4       -0.1277    -1.4606    -1.3996 C.2    1 <0>      -0.1500
5 C5        0.3546    -1.9636    -2.7358 C.3    1 <0>      -0.0800
6 C6        0.0362    -3.4309    -2.8650 C.2    1 <0>      -0.1600
7 C7       -0.6077    -3.8712    -3.9174 C.2    1 <0>      -0.1500
8 C8       -0.8888    -2.9437    -5.0714 C.3    1 <0>      -0.0800
9 C9       -0.3802    -3.5620    -6.3482 C.2    1 <0>      -0.1600
10 C10      -1.1789    -3.6868    -7.3790 C.2    1 <0>      -0.1400
11 C11      -2.5492    -3.0603    -7.3507 C.3    1 <0>      -0.0800
12 C12      -2.7325    -2.1976    -8.5726 C.2    1 <0>      -0.1600
13 C13      -3.7708    -2.3768    -9.3511 C.2    1 <0>      -0.1400
14 C14      -4.8630    -3.3314    -8.9427 C.3    1 <0>      -0.0900
15 C15      -6.1957    -2.6319    -9.0183 C.2    1 <0>      -0.1700
16 C16      -7.1549    -3.1282    -9.7597 C.2    1 <0>      -0.1400
17 C17      -6.8743    -4.2924   -10.6747 C.3    1 <0>      -0.1100
18 C18      -7.7596    -5.4762   -10.2799 C.3    1 <0>      -0.0900
19 C19      -7.4748    -6.6581   -11.2088 C.3    1 <0>      -0.1800
20 C20      -8.3467    -7.8241   -10.8200 C.2    1 <0>       0.4900
21 O21      -9.1240    -7.7194    -9.8865 O.co2  1 <0>      -0.7000
22 O22      -8.2750    -8.8720   -11.4390 O.co2  1 <0>      -0.7100
23 H23       3.3300     1.2822    -1.1785 H      1 <0>       0.0600
24 H24       1.5915     1.6064    -1.3803 H      1 <0>       0.0500
25 H25       2.2459     1.2330     0.2324 H      1 <0>       0.0500
26 H26       2.1643    -0.6826    -2.1426 H      1 <0>       0.0800
27 H27       2.8187    -1.0559    -0.5300 H      1 <0>       0.0700
28 H28       0.3870    -0.5734     0.4019 H      1 <0>       0.1100
29 H29      -1.1536    -1.6185    -1.1014 H      1 <0>       0.1100
30 H30      -0.1438    -1.4121    -3.5330 H      1 <0>       0.0800
31 H31       1.4321    -1.8175    -2.8117 H      1 <0>       0.0800
32 H32       0.3390    -4.1194    -2.0899 H      1 <0>       0.1100
33 H33      -0.9371    -4.8990    -3.9579 H      1 <0>       0.1100
34 H34      -1.9632    -2.7779    -5.1508 H      1 <0>       0.0900
35 H35      -0.3856    -1.9916    -4.9032 H      1 <0>       0.0800
36 H36       0.6427    -3.9023    -6.4133 H      1 <0>       0.1100
37 H37      -0.8554    -4.2387    -8.2491 H      1 <0>       0.1100
38 H38      -3.3069    -3.8439    -7.3421 H      1 <0>       0.0900
39 H39      -2.6502    -2.4476    -6.4549 H      1 <0>       0.0800
40 H40      -2.0079    -1.4317    -8.8066 H      1 <0>       0.1100
41 H41      -3.8440    -1.8403   -10.2856 H      1 <0>       0.1100
42 H42      -4.8649    -4.1901    -9.6141 H      1 <0>       0.0900
43 H43      -4.6873    -3.6690    -7.9214 H      1 <0>       0.0800
44 H44      -6.3600    -1.7214    -8.4612 H      1 <0>       0.1000
45 H45      -8.1467    -2.7031    -9.7153 H      1 <0>       0.1100
46 H46      -7.0891    -4.0054   -11.7040 H      1 <0>       0.0700
47 H47      -5.8260    -4.5780   -10.5882 H      1 <0>       0.0700
48 H48      -7.5449    -5.7631    -9.2505 H      1 <0>       0.0600
49 H49      -8.8080    -5.1906   -10.3663 H      1 <0>       0.0600
50 H50      -7.6895    -6.3711   -12.2382 H      1 <0>       0.0500
51 H51      -6.4264    -6.9436   -11.1224 H      1 <0>       0.0500
@<TRIPOS>BOND
1    1    2 1
2    1   23 1
3    1   24 1
4    1   25 1
5    2    3 1
6    2   26 1
7    2   27 1
8    3    4 2
9    3   28 1
10    4    5 1
11    4   29 1
12    5    6 1
13    5   30 1
14    5   31 1
15    6    7 2
16    6   32 1
17    7    8 1
18    7   33 1
19    8    9 1
20    8   34 1
21    8   35 1
22    9   10 2
23    9   36 1
24   10   11 1
25   10   37 1
26   11   12 1
27   11   38 1
28   11   39 1
29   12   13 2
30   12   40 1
31   13   14 1
32   13   41 1
33   14   15 1
34   14   42 1
35   14   43 1
36   15   16 2
37   15   44 1
38   16   17 1
39   16   45 1
40   17   18 1
41   17   46 1
42   17   47 1
43   18   19 1
44   18   48 1
45   18   49 1
46   19   20 1
47   19   50 1
48   19   51 1
49   20   21 ar
50   20   22 ar
