@<TRIPOS>MOLECULE
ZINC000003782807
42   44    0    0    0
SMALL
USER_CHARGES
NO_NAME
@<TRIPOS>ATOM
1 C1       -1.0817     1.6408     0.0947 C.3    1 <0>      -0.1500
2 C2       -0.7133     0.1562     0.0581 C.3    1 <0>      -0.1300
3 C3       -1.9864    -0.6820    -0.0744 C.3    1 <0>      -0.1400
4 C4       -1.6235    -2.1443    -0.1104 C.ar   1 <0>      -0.1700
5 C5       -1.5794    -2.8161    -1.3212 C.ar   1 <0>       0.2000
6 O6       -1.8462    -2.1635    -2.4696 O.3    1 <0>      -0.2000
7 C7       -2.1056    -2.8187    -3.6101 C.2    1 <0>       0.0900
8 C8       -2.7260    -2.0738    -4.7291 C.2    1 <0>       0.5400
9 O9       -2.9738    -2.6452    -5.7808 O.co2  1 <0>      -0.6500
10 O10      -2.9904    -0.8873    -4.6013 O.co2  1 <0>      -0.6500
11 C11      -1.8247    -4.1320    -3.7835 C.2    1 <0>      -0.3000
12 C12      -1.2223    -4.8719    -2.6569 C.2    1 <0>       0.4300
13 O13      -0.7358    -5.9793    -2.7986 O.2    1 <0>      -0.4900
14 C14      -1.2453    -4.1889    -1.3479 C.ar   1 <0>      -0.2800
15 C15      -0.9485    -4.8707    -0.1750 C.ar   1 <0>       0.0600
16 C16      -0.9901    -4.1869     1.0350 C.ar   1 <0>      -0.2400
17 C17      -1.3284    -2.8145     1.0696 C.ar   1 <0>       0.2600
18 N18      -1.3763    -2.1598     2.2776 N.pl3  1 <0>      -0.4700
19 C19      -2.0286    -0.8502     2.3524 C.3    1 <0>      -0.0200
20 C20      -3.5312    -1.0145     2.1157 C.3    1 <0>      -0.1800
21 C21      -0.8323    -2.6974     3.4115 C.2    1 <0>       0.1400
22 C22      -0.6211    -1.8270     4.5917 C.2    1 <0>       0.5300
23 O23      -0.4154    -2.3245     5.6889 O.co2  1 <0>      -0.6500
24 O24      -0.6525    -0.6115     4.4681 O.co2  1 <0>      -0.6600
25 C25      -0.4808    -4.0075     3.4856 C.2    1 <0>      -0.2900
26 C26      -0.6783    -4.8622     2.3074 C.2    1 <0>       0.4200
27 O27      -0.5985    -6.0762     2.3801 O.2    1 <0>      -0.5100
28 H28      -0.1748     2.2380     0.1891 H      1 <0>       0.0500
29 H29      -1.5995     1.9094    -0.8261 H      1 <0>       0.0600
30 H30      -1.7334     1.8325     0.9472 H      1 <0>       0.0600
31 H31      -0.0617    -0.0355    -0.7943 H      1 <0>       0.0600
32 H32      -0.1956    -0.1125     0.9789 H      1 <0>       0.0700
33 H33      -2.6380    -0.4903     0.7781 H      1 <0>       0.1300
34 H34      -2.5041    -0.4134    -0.9952 H      1 <0>       0.0800
35 H35      -2.0359    -4.6250    -4.7208 H      1 <0>       0.1600
36 H36      -0.6890    -5.9187    -0.2022 H      1 <0>       0.1500
37 H37      -1.8614    -0.4168     3.3385 H      1 <0>       0.1700
38 H38      -1.6106    -0.1920     1.5907 H      1 <0>       0.1300
39 H39      -3.9955    -0.0319     2.0325 H      1 <0>       0.0700
40 H40      -3.6949    -1.5729     1.1940 H      1 <0>       0.0600
41 H41      -3.9737    -1.5559     2.9519 H      1 <0>       0.0600
42 H42      -0.0589    -4.4128     4.3934 H      1 <0>       0.1500
@<TRIPOS>BOND
1    1    2 1
2    1   28 1
3    1   29 1
4    1   30 1
5    2    3 1
6    2   31 1
7    2   32 1
8    3    4 1
9    3   33 1
10    3   34 1
11    4   17 ar
12    4    5 ar
13    5   14 ar
14    5    6 1
15    6    7 1
16    7    8 1
17    7   11 2
18    8    9 ar
19    8   10 ar
20   11   12 1
21   11   35 1
22   12   13 2
23   12   14 1
24   14   15 ar
25   15   16 ar
26   15   36 1
27   16   26 1
28   16   17 ar
29   17   18 1
30   18   19 1
31   18   21 1
32   19   20 1
33   19   37 1
34   19   38 1
35   20   39 1
36   20   40 1
37   20   41 1
38   21   22 1
39   21   25 2
40   22   23 ar
41   22   24 ar
42   25   26 1
43   25   42 1
44   26   27 2
