@<TRIPOS>MOLECULE
ZINC000001532525
27   26    0    0    0
SMALL
USER_CHARGES
NO_NAME
@<TRIPOS>ATOM
1 N1       -0.0160     1.3277     0.0093 N.pl3  1 <0>      -0.7900
2 C2        0.0021    -0.0041     0.0020 C.cat  1 <0>       0.7400
3 N3        1.1645    -0.6543    -0.0126 N.pl3  1 <0>      -0.7900
4 H4        1.9978    -0.1579    -0.0179 H      1 <0>       0.4400
5 H5        1.1776    -1.6242    -0.0179 H      1 <0>       0.4400
6 N6       -1.1731    -0.7040     0.0095 N.pl3  1 <0>      -0.7000
7 C7       -2.4516     0.0111     0.0255 C.3    1 <0>       0.0900
8 C8       -3.6008    -0.9989     0.0311 C.3    1 <0>      -0.1500
9 C9       -4.9360    -0.2520     0.0478 C.3    1 <0>      -0.1200
10 C10      -6.0853    -1.2619     0.0534 C.3    1 <0>      -0.0500
11 H11      -5.9612    -1.9491     0.8904 H      1 <0>       0.1400
12 N12      -6.0788    -2.0181    -1.2060 N.4    1 <0>      -0.6100
13 H13      -6.8367    -2.6841    -1.2024 H      1 <0>       0.4400
14 H14      -6.1937    -1.3820    -1.9808 H      1 <0>       0.4300
15 H15      -5.2014    -2.5075    -1.3000 H      1 <0>       0.4100
16 C16      -7.3957    -0.5310     0.1937 C.2    1 <0>       0.4900
17 O17      -8.1690    -0.4798    -0.7476 O.co2  1 <0>      -0.6600
18 O18      -7.6826     0.0092     1.2484 O.co2  1 <0>      -0.6300
19 H19       0.8174     1.8241     0.0041 H      1 <0>       0.4400
20 H20      -0.8625     1.8013     0.0159 H      1 <0>       0.4400
21 H21      -1.1599    -1.6739     0.0041 H      1 <0>       0.4300
22 H22      -2.5093     0.6321     0.9194 H      1 <0>       0.1000
23 H23      -2.5263     0.6417    -0.8604 H      1 <0>       0.1000
24 H24      -3.5431    -1.6199    -0.8628 H      1 <0>       0.0700
25 H25      -3.5261    -1.6294     0.9170 H      1 <0>       0.0900
26 H26      -4.9938     0.3691     0.9418 H      1 <0>       0.1200
27 H27      -5.0108     0.3786    -0.8381 H      1 <0>       0.0900
@<TRIPOS>BOND
1    1    2 ar
2    1   19 1
3    1   20 1
4    2    3 ar
5    2    6 ar
6    3    4 1
7    3    5 1
8    6    7 1
9    6   21 1
10    7    8 1
11    7   22 1
12    7   23 1
13    8    9 1
14    8   24 1
15    8   25 1
16    9   10 1
17    9   26 1
18    9   27 1
19   10   11 1
20   10   12 1
21   10   16 1
22   12   13 1
23   12   14 1
24   12   15 1
25   16   17 ar
26   16   18 ar
