@<TRIPOS>MOLECULE
ZINC000019419017
47   46    0    0    0
SMALL
USER_CHARGES
NO_NAME
@<TRIPOS>ATOM
1 O1       -1.8683     3.3379    -1.2152 O.co2  1 <0>      -0.6900
2 C2       -1.1292     3.4994    -0.2590 C.2    1 <0>       0.4700
3 O3       -0.4116     4.4834    -0.2025 O.co2  1 <0>      -0.6900
4 C4       -1.1073     2.4858     0.8560 C.3    1 <0>      -0.0300
5 N5       -2.1480     1.4762     0.6205 N.3    1 <0>      -0.5000
6 C6       -3.4782     2.0963     0.5570 C.3    1 <0>       0.0200
7 C7       -3.8367     2.6759     1.9268 C.3    1 <0>       0.0000
8 N8       -5.1116     3.3997     1.8339 N.4    1 <0>      -0.3300
9 H9       -5.0546     4.0883     1.0986 H      1 <0>       0.4300
10 C10      -6.1924     2.4512     1.5337 C.3    1 <0>      -0.0800
11 C11      -7.4782     3.2068     1.3171 C.2    1 <0>       0.4900
12 O12      -7.4928     4.4228     1.4047 O.co2  1 <0>      -0.6700
13 O13      -8.5038     2.6022     1.0544 O.co2  1 <0>      -0.6700
14 C14      -5.3887     4.0695     3.1116 C.3    1 <0>      -0.0800
15 C15      -4.3725     5.1590     3.3383 C.2    1 <0>       0.4900
16 O16      -3.5691     5.4349     2.4637 O.co2  1 <0>      -0.6600
17 O17      -4.3538     5.7645     4.3964 O.co2  1 <0>      -0.6800
18 C18      -1.8677     0.7055    -0.5983 C.3    1 <0>       0.0200
19 C19      -0.6937    -0.2420    -0.3438 C.3    1 <0>       0.0000
20 N20      -0.3486    -0.9397    -1.5897 N.4    1 <0>      -0.3300
21 H21      -1.1713    -1.3894    -1.9624 H      1 <0>       0.4200
22 C22       0.1652     0.0291    -2.5672 C.3    1 <0>      -0.0900
23 C23       0.4037    -0.6641    -3.8839 C.2    1 <0>       0.4900
24 O24       0.1675    -1.8548    -3.9974 O.co2  1 <0>      -0.6800
25 O25       0.8327    -0.0343    -4.8355 O.co2  1 <0>      -0.6600
26 C26       0.6807    -1.9513    -1.3155 C.3    1 <0>      -0.0800
27 C27       0.0997    -3.0359    -0.4454 C.2    1 <0>       0.5000
28 O28      -1.0903    -3.0328    -0.1802 O.co2  1 <0>      -0.6800
29 O29       0.8197    -3.9166    -0.0066 O.co2  1 <0>      -0.6700
30 H30      -0.1314     2.0012     0.8873 H      1 <0>       0.0700
31 H31      -1.2950     2.9864     1.8058 H      1 <0>       0.0800
32 H32      -3.4718     2.8947    -0.1850 H      1 <0>       0.1000
33 H33      -4.2163     1.3450     0.2759 H      1 <0>       0.0700
34 H34      -3.9304     1.8663     2.6506 H      1 <0>       0.1000
35 H35      -3.0523     3.3613     2.2478 H      1 <0>       0.1400
36 H36      -5.9441     1.8907     0.6324 H      1 <0>       0.1200
37 H37      -6.3127     1.7612     2.3690 H      1 <0>       0.1100
38 H38      -6.3878     4.5044     3.0846 H      1 <0>       0.1500
39 H39      -5.3302     3.3435     3.9225 H      1 <0>       0.1000
40 H40      -2.7493     0.1262    -0.8727 H      1 <0>       0.0800
41 H41      -1.6145     1.3880    -1.4096 H      1 <0>       0.1000
42 H42       0.1668     0.3304     0.0024 H      1 <0>       0.1000
43 H43      -0.9739    -0.9720     0.4156 H      1 <0>       0.1400
44 H44      -0.5633     0.8283    -2.7040 H      1 <0>       0.1300
45 H45       1.1024     0.4502    -2.2033 H      1 <0>       0.1100
46 H46       1.0241    -2.3842    -2.2550 H      1 <0>       0.1500
47 H47       1.5211    -1.4846    -0.8018 H      1 <0>       0.1000
@<TRIPOS>BOND
1    1    2 ar
2    2    3 ar
3    2    4 1
4    4    5 1
5    4   30 1
6    4   31 1
7    5    6 1
8    5   18 1
9    6    7 1
10    6   32 1
11    6   33 1
12    7    8 1
13    7   34 1
14    7   35 1
15    8    9 1
16    8   10 1
17    8   14 1
18   10   11 1
19   10   36 1
20   10   37 1
21   11   12 ar
22   11   13 ar
23   14   15 1
24   14   38 1
25   14   39 1
26   15   16 ar
27   15   17 ar
28   18   19 1
29   18   40 1
30   18   41 1
31   19   20 1
32   19   42 1
33   19   43 1
34   20   21 1
35   20   22 1
36   20   26 1
37   22   23 1
38   22   44 1
39   22   45 1
40   23   24 ar
41   23   25 ar
42   26   27 1
43   26   46 1
44   26   47 1
45   27   28 ar
46   27   29 ar
