@<TRIPOS>MOLECULE
ZINC000001540998
50    52    1     0     0
SMALL
USER_CHARGES
@<TRIPOS>ATOM
1      N1     -0.0165    1.3682    0.0096 N.pl3    1 ZINC000001540998   -0.8300
2      C2      0.0021   -0.0041    0.0020 C.2      1 ZINC000001540998    0.6500
3      N3     -1.1387   -0.6549    0.0041 N.2      1 ZINC000001540998   -0.5900
4      C4     -1.1737   -1.9956   -0.0031 C.2      1 ZINC000001540998    0.3400
5      C5      0.0324   -2.7104   -0.0128 C.2      1 ZINC000001540998   -0.3100
6      C6     -0.3297   -4.1268   -0.0183 C.2      1 ZINC000001540998   -0.0700
7      C7      0.6189   -5.2977   -0.0287 C.3      1 ZINC000001540998   -0.0500
8      C8      1.0444   -5.6221    1.4047 C.3      1 ZINC000001540998   -0.0600
9      C9      1.9930   -6.7930    1.3943 C.ar     1 ZINC000001540998   -0.0800
10     C10     1.4978   -8.0815    1.4891 C.ar     1 ZINC000001540998   -0.1300
11     C11     2.3608   -9.1578    1.4806 C.ar     1 ZINC000001540998   -0.0700
12     C12     3.7362   -8.9447    1.3757 C.ar     1 ZINC000001540998   -0.1100
13     C13     4.6668  -10.0934    1.3655 C.2      1 ZINC000001540998    0.5500
14     O14     4.2346  -11.2265    1.4486 O.2      1 ZINC000001540998   -0.5600
15     N15     5.9944   -9.8843    1.2642 N.am     1 ZINC000001540998   -0.6800
16     C16     6.9165  -11.0226    1.2541 C.3      1 ZINC000001540998    0.0700
17     H17     6.4532  -11.8610    0.7339 H        1 ZINC000001540998    0.0800
18     C18     8.2075  -10.6267    0.5347 C.3      1 ZINC000001540998   -0.0800
19     C19     7.9037  -10.3389   -0.9370 C.3      1 ZINC000001540998   -0.1800
20     C20     9.1752   -9.9490   -1.6455 C.2      1 ZINC000001540998    0.4900
21     O21    10.2271   -9.9053   -1.0305 O.co2    1 ZINC000001540998   -0.7000
22     O22     9.1522   -9.6772   -2.8339 O.co2    1 ZINC000001540998   -0.7200
23     C23     7.2342  -11.4244    2.6714 C.2      1 ZINC000001540998    0.5000
24     O24     6.7364  -10.8162    3.6035 O.co2    1 ZINC000001540998   -0.7000
25     O25     7.9889  -12.3575    2.8859 O.co2    1 ZINC000001540998   -0.7000
26     C26     4.2291   -7.6424    1.2800 C.ar     1 ZINC000001540998   -0.0800
27     C27     3.3549   -6.5751    1.2845 C.ar     1 ZINC000001540998   -0.1200
28     C28    -1.6719   -4.1821   -0.0118 C.2      1 ZINC000001540998   -0.0100
29     N29    -2.1861   -2.9099   -0.0027 N.pl3    1 ZINC000001540998   -0.5500
30     C30     1.2521   -1.9988   -0.0149 C.2      1 ZINC000001540998    0.5800
31     O31     2.3197   -2.5871   -0.0237 O.2      1 ZINC000001540998   -0.5100
32     N32     1.2042   -0.6473   -0.0129 N.am     1 ZINC000001540998   -0.6600
33     H33     0.8168    1.8646    0.0043 H        1 ZINC000001540998    0.4100
34     H34    -0.8631    1.8417    0.0162 H        1 ZINC000001540998    0.4300
35     H35     0.1219   -6.1641   -0.4650 H        1 ZINC000001540998    0.0700
36     H36     1.4990   -5.0471   -0.6210 H        1 ZINC000001540998    0.0800
37     H37     1.5414   -4.7557    1.8411 H        1 ZINC000001540998    0.0700
38     H38     0.1644   -5.8727    1.9970 H        1 ZINC000001540998    0.0700
39     H39     0.4333   -8.2450    1.5702 H        1 ZINC000001540998    0.1200
40     H40     1.9730  -10.1630    1.5553 H        1 ZINC000001540998    0.1300
41     H41     6.3393   -8.9801    1.1979 H        1 ZINC000001540998    0.3900
42     H42     8.6242   -9.7339    1.0010 H        1 ZINC000001540998    0.0500
43     H43     8.9271  -11.4425    0.6043 H        1 ZINC000001540998    0.0800
44     H44     7.4870  -11.2317   -1.4033 H        1 ZINC000001540998    0.0500
45     H45     7.1841   -9.5232   -1.0066 H        1 ZINC000001540998    0.0500
46     H46     5.2923   -7.4707    1.1990 H        1 ZINC000001540998    0.1300
47     H47     3.7350   -5.5670    1.2101 H        1 ZINC000001540998    0.1300
48     H48    -2.2572   -5.0898   -0.0132 H        1 ZINC000001540998    0.1800
49     H49    -3.1314   -2.6925    0.0035 H        1 ZINC000001540998    0.4200
50     H50     2.0274   -0.1342   -0.0146 H        1 ZINC000001540998    0.4100
@<TRIPOS>BOND
1     1     2     1
2     1     33    1
3     1     34    1
4     2     32    1
5     2     3     2
6     3     4     1
7     4     29    1
8     4     5     2
9     5     6     1
10    5     30    1
11    6     7     1
12    6     28    2
13    7     8     1
14    7     35    1
15    7     36    1
16    8     9     1
17    8     37    1
18    8     38    1
19    9     27    ar
20    9     10    ar
21    10    11    ar
22    10    39    1
23    11    12    ar
24    11    40    1
25    12    13    1
26    12    26    ar
27    13    14    2
28    13    15    am
29    15    16    1
30    15    41    1
31    16    17    1
32    16    18    1
33    16    23    1
34    18    19    1
35    18    42    1
36    18    43    1
37    19    20    1
38    19    44    1
39    19    45    1
40    20    21    ar
41    20    22    ar
42    23    24    ar
43    23    25    ar
44    26    27    ar
45    26    46    1
46    27    47    1
47    28    29    1
48    28    48    1
49    29    49    1
50    30    31    2
51    30    32    am
52    32    50    1
@<TRIPOS>SUBSTRUCTURE
1   ZINC000001540998 1     RESIDUE    1   A     ZIN   1
