@<TRIPOS>MOLECULE
ZINC000000538283
55   56    0    0    0
SMALL
USER_CHARGES
NO_NAME
@<TRIPOS>ATOM
1 C1       -3.7217    -0.8583    -2.8589 C.3    1 <0>      -0.1500
2 C2       -3.5255    -1.0358    -1.3519 C.3    1 <0>      -0.1600
3 C3       -2.4983    -2.1099    -1.1022 C.2    1 <0>       0.5200
4 O4       -2.4442    -3.0783    -1.8303 O.2    1 <0>      -0.4800
5 N5       -1.6398    -1.9943    -0.0696 N.am   1 <0>      -0.5500
6 C6       -1.9658    -1.1845     1.0240 C.ar   1 <0>       0.1700
7 C7       -1.0207    -0.9334     2.0100 C.ar   1 <0>      -0.1800
8 C8       -1.3456    -0.1337     3.0882 C.ar   1 <0>      -0.0800
9 C9       -2.6105     0.4162     3.1867 C.ar   1 <0>      -0.1500
10 C10      -3.5540     0.1677     2.2068 C.ar   1 <0>      -0.0800
11 C11      -3.2333    -0.6257     1.1227 C.ar   1 <0>      -0.1900
12 C12      -0.3654    -2.7164    -0.0923 C.3    1 <0>       0.1900
13 C13      -0.2565    -3.5845     1.1348 C.2    1 <0>       0.4600
14 O14       0.8253    -3.8017     1.6272 O.2    1 <0>      -0.4900
15 O15      -1.3614    -4.1164     1.6808 O.3    1 <0>      -0.3400
16 C16      -1.1813    -4.9421     2.8615 C.3    1 <0>       0.0300
17 C17      -0.2950    -3.5909    -1.3472 C.3    1 <0>      -0.1100
18 C18      -0.3456    -2.6978    -2.5889 C.3    1 <0>       0.0400
19 N19       0.7812    -1.7566    -2.5626 N.3    1 <0>      -0.5400
20 C20       0.8446    -0.9765    -3.8058 C.3    1 <0>       0.0700
21 C21       2.1588    -0.1943    -3.8506 C.3    1 <0>      -0.1100
22 C22       2.2239     0.6059    -5.1259 C.2    1 <0>       0.4600
23 O23       1.3127     0.5557    -5.9178 O.2    1 <0>      -0.5100
24 O24       3.2942     1.3744    -5.3822 O.3    1 <0>      -0.3600
25 C25       3.2887     2.1174    -6.6297 C.3    1 <0>       0.0300
26 C26       0.7089    -0.8744    -1.3909 C.3    1 <0>       0.0600
27 C27       0.7910    -1.7130    -0.1135 C.3    1 <0>      -0.1300
28 H28      -4.4646    -0.0815    -3.0395 H      1 <0>       0.0700
29 H29      -2.7756    -0.5699    -3.3170 H      1 <0>       0.0600
30 H30      -4.0646    -1.7972    -3.2937 H      1 <0>       0.0700
31 H31      -3.1826    -0.0970    -0.9171 H      1 <0>       0.1000
32 H32      -4.4715    -1.3243    -0.8938 H      1 <0>       0.1100
33 H33      -0.0328    -1.3631     1.9340 H      1 <0>       0.1300
34 H34      -0.6110     0.0620     3.8554 H      1 <0>       0.1300
35 H35      -2.8622     1.0409     4.0310 H      1 <0>       0.1300
36 H36      -4.5413     0.5980     2.2870 H      1 <0>       0.1300
37 H37      -3.9706    -0.8195     0.3577 H      1 <0>       0.1600
38 H38      -2.1505    -5.3080     3.2003 H      1 <0>       0.1000
39 H39      -0.5382    -5.7880     2.6186 H      1 <0>       0.0700
40 H40      -0.7198    -4.3501     3.6519 H      1 <0>       0.0600
41 H41       0.6362    -4.1575    -1.3442 H      1 <0>       0.0800
42 H42      -1.1403    -4.2790    -1.3591 H      1 <0>       0.1100
43 H43      -0.2813    -3.3164    -3.4841 H      1 <0>       0.0800
44 H44      -1.2831    -2.1419    -2.5984 H      1 <0>       0.0700
45 H45       0.7938    -1.6507    -4.6608 H      1 <0>       0.0900
46 H46       0.0063    -0.2808    -3.8414 H      1 <0>       0.0400
47 H47       2.2097     0.4799    -2.9956 H      1 <0>       0.1100
48 H48       2.9971    -0.8901    -3.8151 H      1 <0>       0.1200
49 H49       2.4328     2.7921    -6.6470 H      1 <0>       0.0600
50 H50       4.2090     2.6957    -6.7122 H      1 <0>       0.1000
51 H51       3.2203     1.4222    -7.4664 H      1 <0>       0.0600
52 H52       1.5392    -0.1685    -1.4160 H      1 <0>       0.0900
53 H53      -0.2335    -0.3269    -1.4061 H      1 <0>       0.0400
54 H54       0.7217    -1.0594     0.7561 H      1 <0>       0.0900
55 H55       1.7393    -2.2501    -0.0910 H      1 <0>       0.1100
@<TRIPOS>BOND
1    1    2 1
2    1   28 1
3    1   29 1
4    1   30 1
5    2    3 1
6    2   31 1
7    2   32 1
8    3    4 2
9    3    5 am
10    5    6 1
11    5   12 1
12    6   11 ar
13    6    7 ar
14    7    8 ar
15    7   33 1
16    8    9 ar
17    8   34 1
18    9   10 ar
19    9   35 1
20   10   11 ar
21   10   36 1
22   11   37 1
23   12   27 1
24   12   13 1
25   12   17 1
26   13   14 2
27   13   15 1
28   15   16 1
29   16   38 1
30   16   39 1
31   16   40 1
32   17   18 1
33   17   41 1
34   17   42 1
35   18   19 1
36   18   43 1
37   18   44 1
38   19   20 1
39   19   26 1
40   20   21 1
41   20   45 1
42   20   46 1
43   21   22 1
44   21   47 1
45   21   48 1
46   22   23 2
47   22   24 1
48   24   25 1
49   25   49 1
50   25   50 1
51   25   51 1
52   26   27 1
53   26   52 1
54   26   53 1
55   27   54 1
56   27   55 1
