@<TRIPOS>MOLECULE
ZINC000001530728
43    43    1     0     0
SMALL
USER_CHARGES
@<TRIPOS>ATOM
1      C1      0.6782    0.2121   -1.3143 C.3      1 ZINC000001530728    0.1200
2      N2     -0.0084    0.0097   -0.0361 N.pl3    1 ZINC000001530728   -0.7900
3      C3     -1.2426   -0.6280   -0.0038 C.2      1 ZINC000001530728    0.5300
4      C4     -1.3041   -1.9563    0.0489 C.2      1 ZINC000001530728   -0.2600
5      N5     -0.0632   -2.7493    0.2044 N.pl3    1 ZINC000001530728    0.0600
6      O6      1.0016   -2.1854    0.3826 O.2      1 ZINC000001530728   -0.1900
7      O7     -0.1074   -3.9655    0.1541 O.2      1 ZINC000001530728   -0.2100
8      N8     -2.4126    0.1214   -0.0265 N.pl3    1 ZINC000001530728   -0.7200
9      C9     -2.3470    1.5839    0.0286 C.3      1 ZINC000001530728    0.1400
10     C10    -3.7637    2.1550    0.1154 C.3      1 ZINC000001530728   -0.1200
11     S11    -3.6824    3.9659    0.1836 S.3      1 ZINC000001530728   -0.2100
12     C12    -5.4281    4.4493    0.2817 C.3      1 ZINC000001530728   -0.0100
13     C13    -5.5305    5.9515    0.3461 C.2      1 ZINC000001530728   -0.0100
14     C14    -5.6386    6.7785   -0.7093 C.2      1 ZINC000001530728   -0.1700
15     C15    -5.7065    8.0933   -0.1941 C.2      1 ZINC000001530728   -0.2100
16     C16    -5.6359    7.9912    1.1453 C.2      1 ZINC000001530728    0.0200
17     C17    -5.6711    9.1401    2.1199 C.3      1 ZINC000001530728    0.1300
18     N18    -7.0626    9.4157    2.5019 N.3      1 ZINC000001530728   -0.5500
19     C19    -7.1230   10.3638    3.6223 C.3      1 ZINC000001530728    0.0200
20     C20    -7.8361    9.9073    1.3539 C.3      1 ZINC000001530728    0.0200
21     O21    -5.5352    6.6911    1.4671 O.3      1 ZINC000001530728   -0.1600
22     H22     1.5807    0.8016   -1.1526 H        1 ZINC000001530728    0.0800
23     H23     0.9472   -0.7549   -1.7394 H        1 ZINC000001530728    0.0500
24     H24     0.0177    0.7402   -2.0020 H        1 ZINC000001530728    0.0400
25     H25     0.3985    0.3208    0.7876 H        1 ZINC000001530728    0.4100
26     H26    -2.2590   -2.4559   -0.0217 H        1 ZINC000001530728    0.1800
27     H27    -3.2728   -0.3239   -0.0789 H        1 ZINC000001530728    0.4100
28     H28    -1.7778    1.8892    0.9066 H        1 ZINC000001530728    0.0800
29     H29    -1.8580    1.9598   -0.8701 H        1 ZINC000001530728    0.0800
30     H30    -4.3329    1.8497   -0.7626 H        1 ZINC000001530728    0.0900
31     H31    -4.2526    1.7791    1.0141 H        1 ZINC000001530728    0.0900
32     H32    -5.9557    4.0866   -0.6004 H        1 ZINC000001530728    0.1100
33     H33    -5.8754    4.0160    1.1763 H        1 ZINC000001530728    0.1000
34     H34    -5.6673    6.4929   -1.7505 H        1 ZINC000001530728    0.1500
35     H35    -5.7972    9.0049   -0.7661 H        1 ZINC000001530728    0.1500
36     H36    -5.0950    8.8808    3.0082 H        1 ZINC000001530728    0.1000
37     H37    -5.2402   10.0258    1.6531 H        1 ZINC000001530728    0.0700
38     H38    -6.6483   11.3008    3.3313 H        1 ZINC000001530728    0.0300
39     H39    -8.1644   10.5502    3.8848 H        1 ZINC000001530728    0.0700
40     H40    -6.6011    9.9438    4.4822 H        1 ZINC000001530728    0.0700
41     H41    -7.8327    9.1555    0.5647 H        1 ZINC000001530728    0.0700
42     H42    -8.8623   10.1034    1.6645 H        1 ZINC000001530728    0.0700
43     H43    -7.3872   10.8279    0.9807 H        1 ZINC000001530728    0.0300
@<TRIPOS>BOND
1     1     2     1
2     1     22    1
3     1     23    1
4     1     24    1
5     2     3     1
6     2     25    1
7     3     4     2
8     3     8     1
9     4     5     1
10    4     26    1
11    5     6     2
12    5     7     2
13    8     9     1
14    8     27    1
15    9     10    1
16    9     28    1
17    9     29    1
18    10    11    1
19    10    30    1
20    10    31    1
21    11    12    1
22    12    13    1
23    12    32    1
24    12    33    1
25    13    21    1
26    13    14    2
27    14    15    1
28    14    34    1
29    15    16    2
30    15    35    1
31    16    17    1
32    16    21    1
33    17    18    1
34    17    36    1
35    17    37    1
36    18    19    1
37    18    20    1
38    19    38    1
39    19    39    1
40    19    40    1
41    20    41    1
42    20    42    1
43    20    43    1
@<TRIPOS>SUBSTRUCTURE
1   ZINC000001530728 1     RESIDUE    1   A     ZIN   1
