@<TRIPOS>MOLECULE
ZINC000004097310
84    86    1     0     0
SMALL
USER_CHARGES
@<TRIPOS>ATOM
1      C1     -0.7909    0.9776    5.5808 C.3      1 ZINC000004097310   -0.1400
2      C2     -0.5393    0.6862    4.1001 C.3      1 ZINC000004097310   -0.1100
3      C3      0.4454   -0.4473    3.9714 C.2      1 ZINC000004097310    0.4300
4      O4      0.8994   -0.9686    4.9624 O.2      1 ZINC000004097310   -0.4300
5      O5      0.8181   -0.8778    2.7559 O.3      1 ZINC000004097310   -0.3700
6      C6      1.8215   -1.9262    2.7070 C.3      1 ZINC000004097310    0.3000
7      H7      1.6885   -2.5964    3.5563 H        1 ZINC000004097310    0.1100
8      O8      3.1243   -1.3416    2.7609 O.3      1 ZINC000004097310   -0.7400
9      P9      3.9360   -1.1339    4.1358 P.3      1 ZINC000004097310    2.4100
10     O10     3.1111   -0.3498    5.0820 O.2      1 ZINC000004097310   -0.9700
11     C11     5.4875   -0.2390    3.7962 C.3      1 ZINC000004097310   -0.7400
12     C12     5.1644    1.1717    3.2998 C.3      1 ZINC000004097310   -0.1100
13     C13     6.4666    1.9228    3.0149 C.3      1 ZINC000004097310   -0.1100
14     C14     6.1435    3.3335    2.5184 C.3      1 ZINC000004097310   -0.0900
15     C15     7.4261    4.0732    2.2377 C.ar     1 ZINC000004097310   -0.0800
16     C16     8.0331    4.8085    3.2386 C.ar     1 ZINC000004097310   -0.1200
17     C17     9.2096    5.4871    2.9812 C.ar     1 ZINC000004097310   -0.1200
18     C18     9.7793    5.4300    1.7229 C.ar     1 ZINC000004097310   -0.1300
19     C19     9.1727    4.6940    0.7223 C.ar     1 ZINC000004097310   -0.1200
20     C20     7.9985    4.0120    0.9810 C.ar     1 ZINC000004097310   -0.1200
21     C21     4.3194   -2.7594    4.8666 C.3      1 ZINC000004097310   -0.7800
22     C22     3.0387   -3.4435    5.2700 C.2      1 ZINC000004097310    0.5700
23     O23     2.4831   -4.1950    4.4970 O.2      1 ZINC000004097310   -0.5800
24     N24     2.5107   -3.2203    6.4898 N.am     1 ZINC000004097310   -0.5500
25     C25     1.2726   -3.8250    7.0139 C.3      1 ZINC000004097310    0.1200
26     C26     1.4284   -3.7755    8.5544 C.3      1 ZINC000004097310   -0.1000
27     H27     2.0452   -4.6003    8.9114 H        1 ZINC000004097310    0.0800
28     C28     0.0626   -3.7775    9.2440 C.3      1 ZINC000004097310   -0.0700
29     C29    -0.6818   -5.0685    8.8975 C.3      1 ZINC000004097310   -0.1200
30     C30    -2.0476   -5.0705    9.5871 C.3      1 ZINC000004097310   -0.1200
31     C31    -1.8539   -4.9845   11.1024 C.3      1 ZINC000004097310   -0.1200
32     C32    -1.1094   -3.6936   11.4489 C.3      1 ZINC000004097310   -0.1200
33     C33     0.2563   -3.6916   10.7593 C.3      1 ZINC000004097310   -0.1200
34     C34     2.1497   -2.4160    8.7510 C.3      1 ZINC000004097310   -0.1000
35     C35     3.0775   -2.3382    7.5204 C.3      1 ZINC000004097310    0.0400
36     H36     3.1128   -1.3148    7.1469 H        1 ZINC000004097310    0.1100
37     C37     4.4641   -2.7951    7.8943 C.2      1 ZINC000004097310    0.4800
38     O38     4.8938   -3.8525    7.4656 O.co2    1 ZINC000004097310   -0.6900
39     O39     5.1561   -2.1074    8.6255 O.co2    1 ZINC000004097310   -0.6900
40     C40     1.6705   -2.7163    1.4055 C.3      1 ZINC000004097310   -0.0800
41     C41     2.7775   -3.7687    1.3164 C.3      1 ZINC000004097310   -0.1500
42     C42     0.3061   -3.4082    1.3842 C.3      1 ZINC000004097310   -0.1500
43     H43     0.1474    1.2552    6.0610 H        1 ZINC000004097310    0.0800
44     H44    -1.5031    1.7975    5.6739 H        1 ZINC000004097310    0.0600
45     H45    -1.1962    0.0878    6.0625 H        1 ZINC000004097310    0.0600
46     H46    -1.4776    0.4086    3.6198 H        1 ZINC000004097310    0.0900
47     H47    -0.1340    1.5760    3.6184 H        1 ZINC000004097310    0.1000
48     H48     6.0782   -0.1762    4.7102 H        1 ZINC000004097310    0.1200
49     H49     6.0546   -0.7718    3.0330 H        1 ZINC000004097310    0.0900
50     H50     4.5737    1.1089    2.3859 H        1 ZINC000004097310    0.0700
51     H51     4.5973    1.7045    4.0631 H        1 ZINC000004097310    0.0900
52     H52     7.0573    1.9856    3.9288 H        1 ZINC000004097310    0.0700
53     H53     7.0337    1.3900    2.2516 H        1 ZINC000004097310    0.0600
54     H54     5.5528    3.2707    1.6045 H        1 ZINC000004097310    0.0700
55     H55     5.5764    3.8662    3.2817 H        1 ZINC000004097310    0.0800
56     H56     7.5881    4.8531    4.2216 H        1 ZINC000004097310    0.1200
57     H57     9.6836    6.0621    3.7629 H        1 ZINC000004097310    0.1200
58     H58    10.6981    5.9607    1.5216 H        1 ZINC000004097310    0.1200
59     H59     9.6176    4.6497   -0.2608 H        1 ZINC000004097310    0.1200
60     H60     7.5246    3.4369    0.1992 H        1 ZINC000004097310    0.1200
61     H61     4.8437   -3.3727    4.1337 H        1 ZINC000004097310    0.1100
62     H62     4.9508   -2.6231    5.7446 H        1 ZINC000004097310    0.1600
63     H63     0.4049   -3.2441    6.7015 H        1 ZINC000004097310    0.0700
64     H64     1.1814   -4.8569    6.6748 H        1 ZINC000004097310    0.0700
65     H65    -0.5180   -2.9205    8.9027 H        1 ZINC000004097310    0.0700
66     H66    -0.8198   -5.1298    7.8180 H        1 ZINC000004097310    0.0600
67     H67    -0.1012   -5.9255    9.2388 H        1 ZINC000004097310    0.0600
68     H68    -2.6282   -4.2135    9.2458 H        1 ZINC000004097310    0.0600
69     H69    -2.5779   -5.9902    9.3402 H        1 ZINC000004097310    0.0600
70     H70    -2.8269   -4.9859   11.5937 H        1 ZINC000004097310    0.0600
71     H71    -1.2733   -5.8416   11.4437 H        1 ZINC000004097310    0.0600
72     H72    -1.6900   -2.8365   11.1077 H        1 ZINC000004097310    0.0600
73     H73    -0.9714   -3.6323   12.5284 H        1 ZINC000004097310    0.0600
74     H74     0.8369   -4.5486   11.1006 H        1 ZINC000004097310    0.0600
75     H75     0.7867   -2.7719   11.0062 H        1 ZINC000004097310    0.0700
76     H76     1.4324   -1.5952    8.7502 H        1 ZINC000004097310    0.0700
77     H77     2.7333   -2.4186    9.6716 H        1 ZINC000004097310    0.0800
78     H78     1.7464   -2.0365    0.5569 H        1 ZINC000004097310    0.0900
79     H79     2.6299   -4.5181    2.0941 H        1 ZINC000004097310    0.0800
80     H80     2.7446   -4.2488    0.3384 H        1 ZINC000004097310    0.0600
81     H81     3.7467   -3.2891    1.4533 H        1 ZINC000004097310    0.0600
82     H82    -0.4825   -2.6585    1.4477 H        1 ZINC000004097310    0.0600
83     H83     0.1986   -3.9711    0.4570 H        1 ZINC000004097310    0.0600
84     H84     0.2302   -4.0881    2.2328 H        1 ZINC000004097310    0.0600
@<TRIPOS>BOND
1     1     2     1
2     1     43    1
3     1     44    1
4     1     45    1
5     2     3     1
6     2     46    1
7     2     47    1
8     3     4     2
9     3     5     1
10    5     6     1
11    6     7     1
12    6     8     1
13    6     40    1
14    8     9     1
15    9     10    2
16    9     11    1
17    9     21    1
18    11    12    1
19    11    48    1
20    11    49    1
21    12    13    1
22    12    50    1
23    12    51    1
24    13    14    1
25    13    52    1
26    13    53    1
27    14    15    1
28    14    54    1
29    14    55    1
30    15    20    ar
31    15    16    ar
32    16    17    ar
33    16    56    1
34    17    18    ar
35    17    57    1
36    18    19    ar
37    18    58    1
38    19    20    ar
39    19    59    1
40    20    60    1
41    21    22    1
42    21    61    1
43    21    62    1
44    22    23    2
45    22    24    am
46    24    35    1
47    24    25    1
48    25    26    1
49    25    63    1
50    25    64    1
51    26    27    1
52    26    28    1
53    26    34    1
54    28    33    1
55    28    29    1
56    28    65    1
57    29    30    1
58    29    66    1
59    29    67    1
60    30    31    1
61    30    68    1
62    30    69    1
63    31    32    1
64    31    70    1
65    31    71    1
66    32    33    1
67    32    72    1
68    32    73    1
69    33    74    1
70    33    75    1
71    34    35    1
72    34    76    1
73    34    77    1
74    35    36    1
75    35    37    1
76    37    38    ar
77    37    39    ar
78    40    41    1
79    40    42    1
80    40    78    1
81    41    79    1
82    41    80    1
83    41    81    1
84    42    82    1
85    42    83    1
86    42    84    1
@<TRIPOS>SUBSTRUCTURE
1   ZINC000004097310 1     RESIDUE    1   A     ZIN   1
