@<TRIPOS>MOLECULE
ZINC000000968303
31   31    0    0    0
SMALL
USER_CHARGES
NO_NAME
@<TRIPOS>ATOM
1 C1       -0.0187     1.5258     0.0104 C.3    1 <0>      -0.1400
2 C2        0.0021    -0.0041     0.0020 C.3    1 <0>      -0.0600
3 C3        0.7421    -0.5109     1.2415 C.3    1 <0>      -0.1400
4 C4       -1.4117    -0.5257     0.0127 C.ar   1 <0>      -0.1000
5 C5       -2.2591    -0.2048     1.0555 C.ar   1 <0>      -0.1100
6 C6       -3.5565    -0.6827     1.0656 C.ar   1 <0>      -0.1200
7 C7       -4.0092    -1.4826     0.0327 C.ar   1 <0>      -0.1100
8 C8       -3.1658    -1.8064    -1.0123 C.ar   1 <0>      -0.1000
9 C9       -3.6598    -2.6783    -2.1378 C.3    1 <0>      -0.0600
10 C10      -4.0933    -4.0352    -1.5792 C.3    1 <0>      -0.1400
11 C11      -4.8513    -2.0036    -2.8204 C.3    1 <0>      -0.1400
12 C12      -1.8651    -1.3238    -1.0275 C.ar   1 <0>       0.1000
13 O13      -1.0335    -1.6409    -2.0545 O.3    1 <0>      -0.4900
14 H14       1.0039     1.9031     0.0027 H      1 <0>       0.0600
15 H15      -0.5459     1.8868    -0.8726 H      1 <0>       0.0500
16 H16      -0.5289     1.8773     0.9072 H      1 <0>       0.0600
17 H17       0.5123    -0.3556    -0.8948 H      1 <0>       0.0800
18 H18       0.7568    -1.6008     1.2356 H      1 <0>       0.0600
19 H19       1.7647    -0.1336     1.2338 H      1 <0>       0.0600
20 H20       0.2319    -0.1594     2.1383 H      1 <0>       0.0600
21 H21      -1.9078     0.4196     1.8636 H      1 <0>       0.1200
22 H22      -4.2173    -0.4310     1.8820 H      1 <0>       0.1200
23 H23      -5.0229    -1.8549     0.0431 H      1 <0>       0.1200
24 H24      -2.8595    -2.8231    -2.8635 H      1 <0>       0.0800
25 H25      -4.8936    -3.8904    -0.8535 H      1 <0>       0.0600
26 H26      -4.4506    -4.6658    -2.3933 H      1 <0>       0.0600
27 H27      -3.2444    -4.5158    -1.0929 H      1 <0>       0.0600
28 H28      -5.6516    -1.8589    -2.0947 H      1 <0>       0.0600
29 H29      -4.5425    -1.0370    -3.2183 H      1 <0>       0.0500
30 H30      -5.2087    -2.6343    -3.6344 H      1 <0>       0.0600
31 H31      -1.0636    -1.0164    -2.7922 H      1 <0>       0.3900
@<TRIPOS>BOND
1    1    2 1
2    1   14 1
3    1   15 1
4    1   16 1
5    2    3 1
6    2    4 1
7    2   17 1
8    3   18 1
9    3   19 1
10    3   20 1
11    4   12 ar
12    4    5 ar
13    5    6 ar
14    5   21 1
15    6    7 ar
16    6   22 1
17    7    8 ar
18    7   23 1
19    8    9 1
20    8   12 ar
21    9   10 1
22    9   11 1
23    9   24 1
24   10   25 1
25   10   26 1
26   10   27 1
27   11   28 1
28   11   29 1
29   11   30 1
30   12   13 1
31   13   31 1
