@<TRIPOS>MOLECULE
ZINC000003915154
83    88    1     0     0
SMALL
USER_CHARGES
@<TRIPOS>ATOM
1      C1     -1.5066   -0.0125   -0.7222 C.3      1 ZINC000003915154   -0.1500
2      C2     -1.7593   -1.5009   -0.4738 C.3      1 ZINC000003915154   -0.0800
3      C3     -1.3901   -2.2970   -1.7272 C.3      1 ZINC000003915154   -0.1400
4      C4     -0.9152   -1.9673    0.6842 C.2      1 ZINC000003915154    0.4600
5      O5     -0.1019   -2.8462    0.5236 O.2      1 ZINC000003915154   -0.5000
6      O6     -1.0670   -1.4063    1.8942 O.3      1 ZINC000003915154   -0.3400
7      C7     -0.2204   -1.9053    2.9631 C.3      1 ZINC000003915154    0.0100
8      C8     -0.5300   -1.1627    4.2373 C.2      1 ZINC000003915154    0.3500
9      O9     -1.3767   -0.3017    4.2439 O.2      1 ZINC000003915154   -0.3900
10     C10     0.2172   -1.4945    5.5033 C.3      1 ZINC000003915154    0.0500
11     O11     0.7597   -2.8285    5.4710 O.3      1 ZINC000003915154   -0.3400
12     C12     2.1267   -2.6556    5.0399 C.3      1 ZINC000003915154    0.2200
13     H13     2.1688   -2.5036    3.9614 H        1 ZINC000003915154    0.0700
14     C14     2.9697   -3.8681    5.4400 C.3      1 ZINC000003915154   -0.0800
15     C15     2.3962   -5.1264    4.7852 C.3      1 ZINC000003915154   -0.1100
16     C16     3.2393   -6.3389    5.1853 C.3      1 ZINC000003915154   -0.1200
17     C17     4.6818   -6.1334    4.7188 C.3      1 ZINC000003915154   -0.1200
18     C18     5.2553   -4.8751    5.3736 C.3      1 ZINC000003915154   -0.1200
19     C19     4.4122   -3.6626    4.9735 C.3      1 ZINC000003915154   -0.1100
20     O20     2.5800   -1.4739    5.7328 O.3      1 ZINC000003915154   -0.3600
21     C21     1.4550   -0.5716    5.7077 C.3      1 ZINC000003915154    0.0600
22     H22     1.5453    0.1833    4.9267 H        1 ZINC000003915154    0.1000
23     C23     1.3135    0.0552    7.1218 C.3      1 ZINC000003915154   -0.1100
24     C24     0.4213   -0.9489    7.8594 C.3      1 ZINC000003915154   -0.0800
25     H25     0.9934   -1.8355    8.1327 H        1 ZINC000003915154    0.0800
26     C26    -0.3207   -0.4065    9.0677 C.3      1 ZINC000003915154   -0.0800
27     H27    -0.9407    0.4390    8.7696 H        1 ZINC000003915154    0.1000
28     C28     0.6814    0.0390   10.1345 C.3      1 ZINC000003915154   -0.1100
29     C29    -0.0693    0.6209   11.3366 C.3      1 ZINC000003915154   -0.0900
30     C30    -1.0625   -0.4191   11.8203 C.2      1 ZINC000003915154   -0.0200
31     C31    -1.0681   -0.7541   13.1030 C.2      1 ZINC000003915154   -0.2300
32     C32    -2.0023   -1.7733   13.6055 C.2      1 ZINC000003915154    0.4100
33     O33    -2.0377   -2.0558   14.7886 O.2      1 ZINC000003915154   -0.4600
34     C34    -2.8942   -2.4437   12.6442 C.2      1 ZINC000003915154   -0.2200
35     C35    -2.8759   -2.0882   11.3693 C.2      1 ZINC000003915154   -0.0600
36     C36    -1.9985   -1.0196   10.8135 C.3      1 ZINC000003915154   -0.0100
37     C37    -2.8993    0.0991   10.2863 C.3      1 ZINC000003915154   -0.1400
38     C38    -1.2104   -1.5374    9.6076 C.3      1 ZINC000003915154   -0.0500
39     H39    -0.5690   -2.3597    9.9247 H        1 ZINC000003915154    0.0800
40     C40    -2.1842   -2.0407    8.5462 C.3      1 ZINC000003915154    0.1100
41     H41    -2.7290   -2.8982    8.9412 H        1 ZINC000003915154    0.0600
42     O42    -3.1137   -1.0008    8.2355 O.3      1 ZINC000003915154   -0.5400
43     C43    -1.4541   -2.4594    7.2603 C.3      1 ZINC000003915154   -0.1300
44     C44    -0.6466   -1.2871    6.7414 C.3      1 ZINC000003915154   -0.0400
45     C45    -1.5557   -0.0691    6.5658 C.3      1 ZINC000003915154   -0.1400
46     H46    -0.4531    0.1434   -0.9544 H        1 ZINC000003915154    0.0600
47     H47    -2.1170    0.3249   -1.5598 H        1 ZINC000003915154    0.0800
48     H48    -1.7696    0.5547    0.1707 H        1 ZINC000003915154    0.0700
49     H49    -2.8128   -1.6568   -0.2416 H        1 ZINC000003915154    0.1100
50     H50    -0.3366   -2.1411   -1.9594 H        1 ZINC000003915154    0.0700
51     H51    -1.5701   -3.3573   -1.5502 H        1 ZINC000003915154    0.0700
52     H52    -2.0006   -1.9596   -2.5648 H        1 ZINC000003915154    0.0700
53     H53    -0.4075   -2.9693    3.1080 H        1 ZINC000003915154    0.1100
54     H54     0.8261   -1.7531    2.6989 H        1 ZINC000003915154    0.1000
55     H55     2.9510   -3.9819    6.5239 H        1 ZINC000003915154    0.0900
56     H56     1.3685   -5.2728    5.1175 H        1 ZINC000003915154    0.0700
57     H57     2.4149   -5.0126    3.7013 H        1 ZINC000003915154    0.0600
58     H58     3.2206   -6.4527    6.2692 H        1 ZINC000003915154    0.0600
59     H59     2.8307   -7.2353    4.7188 H        1 ZINC000003915154    0.0600
60     H60     5.2824   -6.9972    5.0038 H        1 ZINC000003915154    0.0600
61     H61     4.7005   -6.0196    3.6349 H        1 ZINC000003915154    0.0600
62     H62     5.2366   -4.9889    6.4575 H        1 ZINC000003915154    0.0600
63     H63     6.2830   -4.7287    5.0412 H        1 ZINC000003915154    0.0700
64     H64     4.4309   -3.5488    3.8896 H        1 ZINC000003915154    0.0600
65     H65     4.8208   -2.7662    5.4400 H        1 ZINC000003915154    0.0700
66     H66     2.2864    0.1347    7.6068 H        1 ZINC000003915154    0.0900
67     H67     0.8299    1.0303    7.0642 H        1 ZINC000003915154    0.0900
68     H68     1.2732   -0.8177   10.4566 H        1 ZINC000003915154    0.0700
69     H69     1.3419    0.7989    9.7169 H        1 ZINC000003915154    0.0800
70     H70     0.6367    0.8544   12.1336 H        1 ZINC000003915154    0.0800
71     H71    -0.5995    1.5249   11.0371 H        1 ZINC000003915154    0.0900
72     H72    -0.3809   -0.2750   13.7846 H        1 ZINC000003915154    0.1400
73     H73    -3.5622   -3.2236   12.9790 H        1 ZINC000003915154    0.1400
74     H74    -3.5378   -2.6046   10.6898 H        1 ZINC000003915154    0.1300
75     H75    -3.2208    0.7283   11.1163 H        1 ZINC000003915154    0.0400
76     H76    -2.3462    0.7021    9.5662 H        1 ZINC000003915154    0.0800
77     H77    -3.7728   -0.3361    9.8008 H        1 ZINC000003915154    0.1000
78     H78    -3.7676   -1.2448    7.5661 H        1 ZINC000003915154    0.3700
79     H79    -0.7715   -3.2824    7.4723 H        1 ZINC000003915154    0.0800
80     H80    -2.1784   -2.7623    6.5041 H        1 ZINC000003915154    0.0700
81     H81    -1.8749    0.2900    7.5442 H        1 ZINC000003915154    0.1000
82     H82    -1.0096    0.7204    6.0495 H        1 ZINC000003915154    0.0500
83     H83    -2.4301   -0.3499    5.9788 H        1 ZINC000003915154    0.0600
@<TRIPOS>BOND
1     1     2     1
2     1     46    1
3     1     47    1
4     1     48    1
5     2     3     1
6     2     4     1
7     2     49    1
8     3     50    1
9     3     51    1
10    3     52    1
11    4     5     2
12    4     6     1
13    6     7     1
14    7     8     1
15    7     53    1
16    7     54    1
17    8     9     2
18    8     10    1
19    10    21    1
20    10    44    1
21    10    11    1
22    11    12    1
23    12    13    1
24    12    14    1
25    12    20    1
26    14    19    1
27    14    15    1
28    14    55    1
29    15    16    1
30    15    56    1
31    15    57    1
32    16    17    1
33    16    58    1
34    16    59    1
35    17    18    1
36    17    60    1
37    17    61    1
38    18    19    1
39    18    62    1
40    18    63    1
41    19    64    1
42    19    65    1
43    20    21    1
44    21    22    1
45    21    23    1
46    23    24    1
47    23    66    1
48    23    67    1
49    24    25    1
50    24    44    1
51    24    26    1
52    26    27    1
53    26    38    1
54    26    28    1
55    28    29    1
56    28    68    1
57    28    69    1
58    29    30    1
59    29    70    1
60    29    71    1
61    30    36    1
62    30    31    2
63    31    32    1
64    31    72    1
65    32    33    2
66    32    34    1
67    34    35    2
68    34    73    1
69    35    36    1
70    35    74    1
71    36    37    1
72    36    38    1
73    37    75    1
74    37    76    1
75    37    77    1
76    38    39    1
77    38    40    1
78    40    41    1
79    40    42    1
80    40    43    1
81    42    78    1
82    43    44    1
83    43    79    1
84    43    80    1
85    44    45    1
86    45    81    1
87    45    82    1
88    45    83    1
@<TRIPOS>SUBSTRUCTURE
1   ZINC000003915154 1     RESIDUE    1   A     ZIN   1
