@<TRIPOS>MOLECULE
ZINC000095616603
43    45    1     0     0
SMALL
USER_CHARGES
@<TRIPOS>ATOM
1      C1     -0.4862    0.9573   -0.3686 C.3      1 ZINC000095616603   -0.1600
2      C2     -0.2886   -0.5598   -0.3805 C.3      1 ZINC000095616603    0.2500
3      C3     -1.6493   -1.2513   -0.4858 C.3      1 ZINC000095616603   -0.1800
4      O4      0.5219   -0.9277   -1.5021 O.3      1 ZINC000095616603   -0.3600
5      C5      1.6909   -1.5925   -0.9907 C.3      1 ZINC000095616603    0.0300
6      H6      2.5375   -0.9062   -1.0097 H        1 ZINC000095616603    0.1100
7      C7      2.0080   -2.8105   -1.8316 C.3      1 ZINC000095616603    0.0600
8      O8      1.0309   -3.8174   -1.6614 O.3      1 ZINC000095616603   -0.3200
9      C9      0.8184   -4.3138   -0.3669 C.3      1 ZINC000095616603    0.2700
10     C10    -0.5574   -4.9822   -0.3301 C.3      1 ZINC000095616603    0.0600
11     O11    -0.5498   -6.1345   -1.1753 O.3      1 ZINC000095616603   -0.7100
12     S12    -1.8752   -6.8817   -1.2152 S.o2     1 ZINC000095616603    2.7900
13     N13    -2.9133   -5.9888   -2.1466 N.am     1 ZINC000095616603   -1.2700
14     O14    -1.6345   -8.0880   -1.9265 O.2      1 ZINC000095616603   -0.9500
15     O15    -2.3940   -6.8495    0.1073 O.2      1 ZINC000095616603   -0.9900
16     O16     1.7935   -5.3220   -0.0391 O.3      1 ZINC000095616603   -0.3600
17     C17     1.9511   -5.2547    1.3868 C.3      1 ZINC000095616603    0.2400
18     C18     0.9726   -6.2178    2.0620 C.3      1 ZINC000095616603   -0.1900
19     C19     3.3864   -5.6238    1.7672 C.3      1 ZINC000095616603   -0.1500
20     O20     1.6699   -3.9100    1.7974 O.3      1 ZINC000095616603   -0.3500
21     C21     0.8821   -3.3057    0.7561 C.3      1 ZINC000095616603    0.0200
22     H22    -0.1293   -3.2045    1.1497 H        1 ZINC000095616603    0.1100
23     C23     1.3534   -1.9418    0.4467 C.3      1 ZINC000095616603    0.0500
24     H24     2.2550   -1.7540    1.0297 H        1 ZINC000095616603    0.1300
25     O25     0.3627   -0.9670    0.8291 O.3      1 ZINC000095616603   -0.3500
26     H26     0.4836    1.4495   -0.2952 H        1 ZINC000095616603    0.0700
27     H27    -0.9817    1.2664   -1.2890 H        1 ZINC000095616603    0.0800
28     H28    -1.1012    1.2370    0.4867 H        1 ZINC000095616603    0.0800
29     H29    -2.1489   -0.9328   -1.4007 H        1 ZINC000095616603    0.0800
30     H30    -1.5071   -2.3318   -0.5067 H        1 ZINC000095616603    0.0500
31     H31    -2.2614   -0.9820    0.3750 H        1 ZINC000095616603    0.0800
32     H32     2.0430   -2.5205   -2.8817 H        1 ZINC000095616603    0.1300
33     H33     2.9812   -3.2038   -1.5379 H        1 ZINC000095616603    0.0800
34     H34    -0.7881   -5.2828    0.6919 H        1 ZINC000095616603    0.1300
35     H35    -1.3125   -4.2790   -0.6814 H        1 ZINC000095616603    0.1000
36     H36    -2.6147   -5.1553   -2.5427 H        1 ZINC000095616603    0.4200
37     H37    -3.8200   -6.2994   -2.2961 H        1 ZINC000095616603    0.4300
38     H38     1.0544   -7.2018    1.6003 H        1 ZINC000095616603    0.0900
39     H39     1.2109   -6.2933    3.1229 H        1 ZINC000095616603    0.0900
40     H40    -0.0446   -5.8444    1.9437 H        1 ZINC000095616603    0.0700
41     H41     4.0782   -4.9265    1.2947 H        1 ZINC000095616603    0.0700
42     H42     3.5003   -5.5711    2.8499 H        1 ZINC000095616603    0.0800
43     H43     3.6032   -6.6367    1.4279 H        1 ZINC000095616603    0.0900
@<TRIPOS>BOND
1     1     2     1
2     1     26    1
3     1     27    1
4     1     28    1
5     2     25    1
6     2     3     1
7     2     4     1
8     3     29    1
9     3     30    1
10    3     31    1
11    4     5     1
12    5     6     1
13    5     23    1
14    5     7     1
15    7     8     1
16    7     32    1
17    7     33    1
18    8     9     1
19    9     21    1
20    9     10    1
21    9     16    1
22    10    11    1
23    10    34    1
24    10    35    1
25    11    12    1
26    12    13    am
27    12    14    2
28    12    15    2
29    13    36    1
30    13    37    1
31    16    17    1
32    17    18    1
33    17    19    1
34    17    20    1
35    18    38    1
36    18    39    1
37    18    40    1
38    19    41    1
39    19    42    1
40    19    43    1
41    20    21    1
42    21    22    1
43    21    23    1
44    23    24    1
45    23    25    1
@<TRIPOS>SUBSTRUCTURE
1   ZINC000095616603 1     RESIDUE    1   A     ZIN   1
