@<TRIPOS>MOLECULE
ZINC000001530652
51    52    1     0     0
SMALL
USER_CHARGES
@<TRIPOS>ATOM
1      C1      0.1141    1.3486   -0.1091 C.3      1 ZINC000001530652   -0.1900
2      C2      0.0422   -0.1788   -0.0549 C.3      1 ZINC000001530652   -0.0100
3      N3     -1.3570   -0.5978    0.1027 N.4      1 ZINC000001530652   -0.3800
4      H4     -1.7577   -0.1367    0.9057 H        1 ZINC000001530652    0.4300
5      C5     -2.1159   -0.2329   -1.1010 C.3      1 ZINC000001530652   -0.0100
6      C6     -3.5996   -0.5332   -0.8788 C.3      1 ZINC000001530652    0.0500
7      O7     -4.0993    0.2897    0.1772 O.3      1 ZINC000001530652   -0.5800
8      C8     -1.4136   -2.0531    0.2949 C.3      1 ZINC000001530652   -0.0200
9      C9     -0.7301   -2.4203    1.6135 C.3      1 ZINC000001530652   -0.1500
10     C10    -0.7891   -3.9360    1.8137 C.3      1 ZINC000001530652   -0.1300
11     C11    -0.1056   -4.3033    3.1324 C.3      1 ZINC000001530652    0.1300
12     H12    -0.5604   -3.7393    3.9467 H        1 ZINC000001530652    0.1100
13     C13    -0.2731   -5.8015    3.3937 C.3      1 ZINC000001530652   -0.1800
14     N14     1.3206   -3.9784    3.0502 N.pl3    1 ZINC000001530652   -0.6800
15     C15     2.0409   -3.7220    4.2068 C.ar     1 ZINC000001530652    0.3500
16     C16     3.4178   -3.4002    4.1529 C.ar     1 ZINC000001530652   -0.1300
17     C17     4.1029   -3.3288    2.9319 C.ar     1 ZINC000001530652   -0.0500
18     C18     5.4286   -3.0157    2.9203 C.ar     1 ZINC000001530652   -0.1000
19     C19     6.1133   -2.7655    4.1085 C.ar     1 ZINC000001530652    0.0400
20     Cl20    7.8026   -2.3694    4.0543 Cl       1 ZINC000001530652    0.0000
21     C21     5.4769   -2.8267    5.3116 C.ar     1 ZINC000001530652   -0.1400
22     C22     4.1093   -3.1464    5.3616 C.ar     1 ZINC000001530652    0.1900
23     N23     3.4599   -3.2127    6.5294 N.ar     1 ZINC000001530652   -0.5000
24     H24     3.9450   -3.0369    7.3508 H        1 ZINC000001530652    0.4500
25     C25     2.1824   -3.5094    6.5919 C.ar     1 ZINC000001530652    0.2400
26     C26     1.4336   -3.7671    5.4523 C.ar     1 ZINC000001530652   -0.2700
27     H27     1.1577    1.6630   -0.1196 H        1 ZINC000001530652    0.1100
28     H28    -0.3815    1.7038   -1.0126 H        1 ZINC000001530652    0.0800
29     H29    -0.3826    1.7670    0.7663 H        1 ZINC000001530652    0.0800
30     H30     0.4441   -0.5945   -0.9789 H        1 ZINC000001530652    0.1300
31     H31     0.6272   -0.5403    0.7908 H        1 ZINC000001530652    0.1300
32     H32    -1.9868    0.8303   -1.3035 H        1 ZINC000001530652    0.1400
33     H33    -1.7512   -0.8115   -1.9497 H        1 ZINC000001530652    0.1400
34     H34    -4.1534   -0.3255   -1.7944 H        1 ZINC000001530652    0.1000
35     H35    -3.7217   -1.5826   -0.6106 H        1 ZINC000001530652    0.0700
36     H36    -5.0146    0.0994    0.4246 H        1 ZINC000001530652    0.4100
37     H37    -2.4544   -2.3756    0.3230 H        1 ZINC000001530652    0.1300
38     H38    -0.9017   -2.5487   -0.5300 H        1 ZINC000001530652    0.1300
39     H39     0.3107   -2.0978    1.5855 H        1 ZINC000001530652    0.0800
40     H40    -1.2419   -1.9247    2.4385 H        1 ZINC000001530652    0.0900
41     H41    -1.8299   -4.2586    1.8418 H        1 ZINC000001530652    0.1100
42     H42    -0.2772   -4.4317    0.9888 H        1 ZINC000001530652    0.0900
43     H43     0.2138   -6.0631    4.3331 H        1 ZINC000001530652    0.0700
44     H44    -1.3342   -6.0432    3.4548 H        1 ZINC000001530652    0.0900
45     H45     0.1817   -6.3654    2.5793 H        1 ZINC000001530652    0.0700
46     H46     1.7609   -3.9427    2.1867 H        1 ZINC000001530652    0.4200
47     H47     3.5825   -3.5215    2.0053 H        1 ZINC000001530652    0.1500
48     H48     5.9556   -2.9609    1.9792 H        1 ZINC000001530652    0.1600
49     H49     6.0214   -2.6306    6.2235 H        1 ZINC000001530652    0.1700
50     H50     1.6999   -3.5510    7.5573 H        1 ZINC000001530652    0.2100
51     H51     0.3842   -4.0082    5.5357 H        1 ZINC000001530652    0.1800
@<TRIPOS>BOND
1     1     2     1
2     1     27    1
3     1     28    1
4     1     29    1
5     2     3     1
6     2     30    1
7     2     31    1
8     3     4     1
9     3     5     1
10    3     8     1
11    5     6     1
12    5     32    1
13    5     33    1
14    6     7     1
15    6     34    1
16    6     35    1
17    7     36    1
18    8     9     1
19    8     37    1
20    8     38    1
21    9     10    1
22    9     39    1
23    9     40    1
24    10    11    1
25    10    41    1
26    10    42    1
27    11    12    1
28    11    13    1
29    11    14    1
30    13    43    1
31    13    44    1
32    13    45    1
33    14    15    1
34    14    46    1
35    15    26    ar
36    15    16    ar
37    16    22    ar
38    16    17    ar
39    17    18    ar
40    17    47    1
41    18    19    ar
42    18    48    1
43    19    20    1
44    19    21    ar
45    21    22    ar
46    21    49    1
47    22    23    ar
48    23    24    1
49    23    25    ar
50    25    26    ar
51    25    50    1
52    26    51    1
@<TRIPOS>SUBSTRUCTURE
1   ZINC000001530652 1     RESIDUE    1   A     ZIN   1
