@<TRIPOS>MOLECULE
ZINC000003917708
68    72    1     0     0
SMALL
USER_CHARGES
@<TRIPOS>ATOM
1      C1      2.2113    1.3575    0.4950 C.3      1 ZINC000003917708    0.0200
2      O2      1.9417   -0.0434    0.4124 O.3      1 ZINC000003917708   -0.2900
3      C3      0.6424   -0.4253    0.4805 C.ar     1 ZINC000003917708    0.1800
4      C4     -0.3613    0.5291    0.6188 C.ar     1 ZINC000003917708   -0.1900
5      C5     -1.6851    0.1451    0.6898 C.ar     1 ZINC000003917708   -0.0500
6      C6     -2.0354   -1.1939    0.6241 C.ar     1 ZINC000003917708   -0.1000
7      C7     -1.0492   -2.1634    0.4848 C.ar     1 ZINC000003917708   -0.0800
8      C8      0.3031   -1.7786    0.4066 C.ar     1 ZINC000003917708   -0.1700
9      C9      1.3493   -2.8086    0.2581 C.2      1 ZINC000003917708    0.4400
10     O10     2.5189   -2.5283    0.4387 O.2      1 ZINC000003917708   -0.4100
11     C11     0.9595   -4.1822   -0.1116 C.ar     1 ZINC000003917708   -0.1400
12     C12     1.9100   -5.1031   -0.5419 C.ar     1 ZINC000003917708    0.1800
13     O13     3.2132   -4.7369   -0.6246 O.3      1 ZINC000003917708   -0.4700
14     C14     1.5299   -6.4071   -0.8901 C.ar     1 ZINC000003917708   -0.0800
15     C15     0.2140   -6.7856   -0.8074 C.ar     1 ZINC000003917708   -0.0400
16     C16    -0.2544   -8.1743   -1.1593 C.3      1 ZINC000003917708   -0.1100
17     C17     0.7943   -8.8998   -1.9992 C.3      1 ZINC000003917708    0.1000
18     O18     0.4306  -10.2744   -2.1417 O.3      1 ZINC000003917708   -0.5300
19     C19     0.8903   -8.2564   -3.3586 C.2      1 ZINC000003917708    0.3200
20     C20     1.4017   -9.0499   -4.5334 C.3      1 ZINC000003917708   -0.2000
21     O21     0.5575   -7.1051   -3.5065 O.2      1 ZINC000003917708   -0.4300
22     C22     2.1446   -8.7944   -1.2801 C.3      1 ZINC000003917708   -0.1200
23     C23     2.6158   -7.3438   -1.3538 C.3      1 ZINC000003917708    0.1500
24     H24     2.8812   -7.1043   -2.3835 H        1 ZINC000003917708    0.0900
25     O25     3.7654   -7.1794   -0.5211 O.3      1 ZINC000003917708   -0.3800
26     C26     5.0084   -7.3136   -1.2131 C.3      1 ZINC000003917708    0.2500
27     H27     4.9775   -6.7288   -2.1325 H        1 ZINC000003917708    0.1300
28     C28     6.1457   -6.8058   -0.3230 C.3      1 ZINC000003917708   -0.1600
29     C29     6.2208   -7.6705    0.9391 C.3      1 ZINC000003917708    0.0400
30     H30     5.2962   -7.5676    1.5071 H        1 ZINC000003917708    0.1600
31     N31     7.3557   -7.2371    1.7650 N.4      1 ZINC000003917708   -0.6300
32     H32     7.2312   -6.2707    2.0270 H        1 ZINC000003917708    0.4400
33     H33     7.4041   -7.8073    2.5960 H        1 ZINC000003917708    0.4400
34     H34     8.2112   -7.3355    1.2393 H        1 ZINC000003917708    0.4400
35     C35     6.4112   -9.1346    0.5311 C.3      1 ZINC000003917708    0.0600
36     H36     6.4103   -9.7639    1.4211 H        1 ZINC000003917708    0.0900
37     O37     7.6557   -9.2809   -0.1558 O.3      1 ZINC000003917708   -0.5600
38     C38     5.2636   -9.5524   -0.3920 C.3      1 ZINC000003917708    0.0600
39     H39     4.3188   -9.4794    0.1466 H        1 ZINC000003917708    0.0900
40     C40     5.4784  -10.9957   -0.8520 C.3      1 ZINC000003917708   -0.1600
41     O41     5.2311   -8.6890   -1.5305 O.3      1 ZINC000003917708   -0.3600
42     C42    -0.7561   -5.8686   -0.3792 C.ar     1 ZINC000003917708    0.1600
43     O43    -2.0554   -6.2492   -0.3028 O.3      1 ZINC000003917708   -0.4700
44     C44    -0.3946   -4.5700   -0.0313 C.ar     1 ZINC000003917708   -0.1300
45     C45    -1.4077   -3.5966    0.4119 C.2      1 ZINC000003917708    0.4400
46     O46    -2.5245   -3.9668    0.7183 O.2      1 ZINC000003917708   -0.4100
47     H47     3.2863    1.5251    0.4278 H        1 ZINC000003917708    0.1100
48     H48     1.7113    1.8727   -0.3251 H        1 ZINC000003917708    0.0600
49     H49     1.8422    1.7431    1.4453 H        1 ZINC000003917708    0.0600
50     H50    -0.1026    1.5763    0.6712 H        1 ZINC000003917708    0.1500
51     H51    -2.4547    0.8950    0.7979 H        1 ZINC000003917708    0.1500
52     H52    -3.0741   -1.4841    0.6814 H        1 ZINC000003917708    0.1500
53     H53     3.6975   -4.8155    0.2087 H        1 ZINC000003917708    0.3900
54     H54    -0.4321   -8.7365   -0.2426 H        1 ZINC000003917708    0.1100
55     H55    -1.1839   -8.1073   -1.7247 H        1 ZINC000003917708    0.1000
56     H56    -0.4235  -10.4125   -2.5737 H        1 ZINC000003917708    0.3900
57     H57     0.5665   -9.5454   -5.0283 H        1 ZINC000003917708    0.1000
58     H58     1.8953   -8.3797   -5.2372 H        1 ZINC000003917708    0.0900
59     H59     2.1131   -9.7983   -4.1843 H        1 ZINC000003917708    0.0900
60     H60     2.0296   -9.0908   -0.2375 H        1 ZINC000003917708    0.1000
61     H61     2.8724   -9.4423   -1.7686 H        1 ZINC000003917708    0.1000
62     H62     7.0891   -6.8702   -0.8652 H        1 ZINC000003917708    0.1200
63     H63     5.9549   -5.7696   -0.0438 H        1 ZINC000003917708    0.1100
64     H64     7.8420  -10.1850   -0.4440 H        1 ZINC000003917708    0.4100
65     H65     5.5040  -11.6539    0.0165 H        1 ZINC000003917708    0.0800
66     H66     4.6613  -11.2930   -1.5093 H        1 ZINC000003917708    0.0800
67     H67     6.4230  -11.0685   -1.3910 H        1 ZINC000003917708    0.0700
68     H68    -2.3075   -6.6178    0.5549 H        1 ZINC000003917708    0.4000
@<TRIPOS>BOND
1     1     2     1
2     1     47    1
3     1     48    1
4     1     49    1
5     2     3     1
6     3     8     ar
7     3     4     ar
8     4     5     ar
9     4     50    1
10    5     6     ar
11    5     51    1
12    6     7     ar
13    6     52    1
14    7     45    1
15    7     8     ar
16    8     9     1
17    9     10    2
18    9     11    1
19    11    44    ar
20    11    12    ar
21    12    13    1
22    12    14    ar
23    13    53    1
24    14    23    1
25    14    15    ar
26    15    16    1
27    15    42    ar
28    16    17    1
29    16    54    1
30    16    55    1
31    17    18    1
32    17    19    1
33    17    22    1
34    18    56    1
35    19    20    1
36    19    21    2
37    20    57    1
38    20    58    1
39    20    59    1
40    22    23    1
41    22    60    1
42    22    61    1
43    23    24    1
44    23    25    1
45    25    26    1
46    26    27    1
47    26    41    1
48    26    28    1
49    28    29    1
50    28    62    1
51    28    63    1
52    29    30    1
53    29    31    1
54    29    35    1
55    31    32    1
56    31    33    1
57    31    34    1
58    35    36    1
59    35    37    1
60    35    38    1
61    37    64    1
62    38    39    1
63    38    40    1
64    38    41    1
65    40    65    1
66    40    66    1
67    40    67    1
68    42    43    1
69    42    44    ar
70    43    68    1
71    44    45    1
72    45    46    2
@<TRIPOS>SUBSTRUCTURE
1   ZINC000003917708 1     RESIDUE    1   A     ZIN   1
