@<TRIPOS>MOLECULE
ZINC000000896703
28   29    0    0    0
SMALL
USER_CHARGES
NO_NAME
@<TRIPOS>ATOM
1 C1        0.1262     1.3052    -0.5328 C.3    1 <0>       0.0600
2 N2        0.0626    -0.1427    -0.3193 N.am   1 <0>      -0.5800
3 C3       -0.0683    -1.0181    -1.3237 C.2    1 <0>       0.5300
4 O4       -0.1477    -0.7316    -2.4990 O.2    1 <0>      -0.4800
5 C5       -0.1009    -2.4218    -0.7596 C.3    1 <0>      -0.1500
6 C6        0.0353    -2.2035     0.7611 C.3    1 <0>      -0.0500
7 C7       -1.1991    -2.7330     1.4937 C.3    1 <0>      -0.1400
8 C8        1.2843    -2.8663     1.2822 C.ar   1 <0>      -0.0700
9 C9        1.1876    -3.9311     2.1585 C.ar   1 <0>      -0.1000
10 C10       2.3333    -4.5391     2.6366 C.ar   1 <0>      -0.1200
11 C11       3.5757    -4.0826     2.2380 C.ar   1 <0>      -0.1100
12 C12       3.6725    -3.0184     1.3611 C.ar   1 <0>      -0.1100
13 C13       2.5267    -2.4132     0.8797 C.ar   1 <0>      -0.1100
14 C14       0.1362    -0.6997     0.8959 C.2    1 <0>       0.5400
15 O15       0.2573    -0.0948     1.9394 O.2    1 <0>      -0.4600
16 H16       1.1642     1.6064    -0.6743 H      1 <0>       0.0700
17 H17      -0.4522     1.5676    -1.4187 H      1 <0>       0.0900
18 H18      -0.2860     1.8190     0.3356 H      1 <0>       0.0900
19 H19      -1.0481    -2.9076    -0.9941 H      1 <0>       0.1300
20 H20       0.7362    -3.0074    -1.1396 H      1 <0>       0.1300
21 H21      -1.3077    -3.7998     1.2985 H      1 <0>       0.0800
22 H22      -1.0836    -2.5696     2.5652 H      1 <0>       0.0800
23 H23      -2.0855    -2.2067     1.1395 H      1 <0>       0.0700
24 H24       0.2169    -4.2877     2.4699 H      1 <0>       0.1300
25 H25       2.2577    -5.3705     3.3217 H      1 <0>       0.1300
26 H26       4.4709    -4.5572     2.6121 H      1 <0>       0.1300
27 H27       4.6432    -2.6616     1.0500 H      1 <0>       0.1300
28 H28       2.6023    -1.5818     0.1945 H      1 <0>       0.1100
@<TRIPOS>BOND
1    1    2 1
2    1   16 1
3    1   17 1
4    1   18 1
5    2   14 am
6    2    3 am
7    3    4 2
8    3    5 1
9    5    6 1
10    5   19 1
11    5   20 1
12    6    7 1
13    6    8 1
14    6   14 1
15    7   21 1
16    7   22 1
17    7   23 1
18    8   13 ar
19    8    9 ar
20    9   10 ar
21    9   24 1
22   10   11 ar
23   10   25 1
24   11   12 ar
25   11   26 1
26   12   13 ar
27   12   27 1
28   13   28 1
29   14   15 2
