@<TRIPOS>MOLECULE
ZINC000000000494
50    50    1     0     0
SMALL
USER_CHARGES
@<TRIPOS>ATOM
1      C1     -0.0184    1.5028    0.0103 C.3      1 ZINC000000000494   -0.1500
2      C2      0.0021   -0.0041    0.0020 C.2      1 ZINC000000000494    0.4500
3      O3      1.0565   -0.5939   -0.0112 O.2      1 ZINC000000000494   -0.4900
4      O4     -1.1512   -0.6910    0.0093 O.3      1 ZINC000000000494   -0.2900
5      C5     -1.0617   -2.0479    0.0012 C.ar     1 ZINC000000000494    0.0500
6      C6     -1.0217   -2.7330   -1.2040 C.ar     1 ZINC000000000494   -0.0400
7      C7     -1.0780   -1.9738   -2.5046 C.3      1 ZINC000000000494   -0.1200
8      C8     -0.9298   -4.1112   -1.2123 C.ar     1 ZINC000000000494   -0.2000
9      C9     -0.8779   -4.8100   -0.0154 C.ar     1 ZINC000000000494    0.1300
10     O10    -0.7870   -6.1666   -0.0235 O.3      1 ZINC000000000494   -0.2900
11     C11    -0.7494   -6.8066   -1.3006 C.3      1 ZINC000000000494    0.0300
12     C12    -0.6471   -8.3211   -1.1093 C.3      1 ZINC000000000494    0.0900
13     H13    -1.4652   -8.6634   -0.4755 H        1 ZINC000000000494    0.1300
14     O14     0.6006   -8.6397   -0.4898 O.3      1 ZINC000000000494   -0.5400
15     C15    -0.7323   -9.0141   -2.4707 C.3      1 ZINC000000000494   -0.0500
16     N16    -0.7546  -10.4703   -2.2783 N.4      1 ZINC000000000494   -0.5000
17     H17     0.0885  -10.7600   -1.8056 H        1 ZINC000000000494    0.4300
18     H18    -1.5567  -10.7237   -1.7211 H        1 ZINC000000000494    0.4300
19     C19    -0.8364  -11.1357   -3.5854 C.3      1 ZINC000000000494    0.0200
20     C20     0.4383  -10.8521   -4.3827 C.3      1 ZINC000000000494   -0.1900
21     C21    -0.9851  -12.6446   -3.3812 C.3      1 ZINC000000000494   -0.1900
22     C22    -0.9184   -4.1247    1.1902 C.ar     1 ZINC000000000494   -0.1000
23     C23    -0.8621   -4.8839    2.4908 C.3      1 ZINC000000000494   -0.1100
24     C24    -1.0045   -2.7465    1.1985 C.ar     1 ZINC000000000494   -0.0400
25     C25    -1.0480   -2.0021    2.5080 C.3      1 ZINC000000000494   -0.1300
26     H26     1.0042    1.8801    0.0026 H        1 ZINC000000000494    0.1100
27     H27    -0.5455    1.8639   -0.8728 H        1 ZINC000000000494    0.1000
28     H28    -0.5286    1.8543    0.9071 H        1 ZINC000000000494    0.1100
29     H29    -0.0662   -1.7226   -2.8228 H        1 ZINC000000000494    0.0800
30     H30    -1.5554   -2.5912   -3.2654 H        1 ZINC000000000494    0.0700
31     H31    -1.6531   -1.0582   -2.3662 H        1 ZINC000000000494    0.0800
32     H32    -0.8986   -4.6447   -2.1508 H        1 ZINC000000000494    0.1300
33     H33    -1.6595   -6.5707   -1.8522 H        1 ZINC000000000494    0.0800
34     H34     0.1164   -6.4517   -1.8596 H        1 ZINC000000000494    0.0800
35     H35     1.3746   -8.3636   -0.9995 H        1 ZINC000000000494    0.3900
36     H36    -1.6430   -8.7011   -2.9813 H        1 ZINC000000000494    0.1500
37     H37     0.1342   -8.7403   -3.0726 H        1 ZINC000000000494    0.1400
38     H38    -1.6993  -10.7563   -4.1329 H        1 ZINC000000000494    0.1400
39     H39     0.5443   -9.7771   -4.5283 H        1 ZINC000000000494    0.0800
40     H40     1.3012  -11.2314   -3.8353 H        1 ZINC000000000494    0.0800
41     H41     0.3776  -11.3458   -5.3526 H        1 ZINC000000000494    0.1100
42     H42    -1.8932  -12.8466   -2.8132 H        1 ZINC000000000494    0.0800
43     H43    -1.0458  -13.1383   -4.3511 H        1 ZINC000000000494    0.1100
44     H44    -0.1222  -13.0240   -2.8338 H        1 ZINC000000000494    0.0800
45     H45     0.1769   -4.9986    2.7999 H        1 ZINC000000000494    0.0700
46     H46    -1.4103   -4.3347    3.2562 H        1 ZINC000000000494    0.0700
47     H47    -1.3120   -5.8677    2.3570 H        1 ZINC000000000494    0.0700
48     H48    -0.0328   -1.7585    2.8214 H        1 ZINC000000000494    0.0800
49     H49    -1.6205   -1.0828    2.3845 H        1 ZINC000000000494    0.0800
50     H50    -1.5220   -2.6264    3.2653 H        1 ZINC000000000494    0.0800
@<TRIPOS>BOND
1     1     2     1
2     1     26    1
3     1     27    1
4     1     28    1
5     2     3     2
6     2     4     1
7     4     5     1
8     5     24    ar
9     5     6     ar
10    6     7     1
11    6     8     ar
12    7     29    1
13    7     30    1
14    7     31    1
15    8     9     ar
16    8     32    1
17    9     10    1
18    9     22    ar
19    10    11    1
20    11    12    1
21    11    33    1
22    11    34    1
23    12    13    1
24    12    14    1
25    12    15    1
26    14    35    1
27    15    16    1
28    15    36    1
29    15    37    1
30    16    17    1
31    16    18    1
32    16    19    1
33    19    20    1
34    19    21    1
35    19    38    1
36    20    39    1
37    20    40    1
38    20    41    1
39    21    42    1
40    21    43    1
41    21    44    1
42    22    23    1
43    22    24    ar
44    23    45    1
45    23    46    1
46    23    47    1
47    24    25    1
48    25    48    1
49    25    49    1
50    25    50    1
@<TRIPOS>SUBSTRUCTURE
1   ZINC000000000494 1     RESIDUE    1   A     ZIN   1
