@<TRIPOS>MOLECULE
ZINC000049643479
36    38    1     0     0
SMALL
USER_CHARGES
@<TRIPOS>ATOM
1      O1      0.1516    0.4571   -0.5789 O.co2    1 ZINC000049643479   -0.7000
2      C2      0.0359    1.6606   -0.4217 C.2      1 ZINC000049643479    0.5000
3      O3      1.0253    2.3730   -0.4193 O.co2    1 ZINC000049643479   -0.7000
4      C4     -1.3306    2.2684   -0.2366 C.3      1 ZINC000049643479   -0.1800
5      C5     -2.3902    1.1658   -0.2865 C.3      1 ZINC000049643479   -0.0100
6      C6     -3.7567    1.7736   -0.1014 C.2      1 ZINC000049643479    0.2300
7      N7     -4.5243    2.2002   -1.0618 N.2      1 ZINC000049643479   -0.4800
8      C8     -5.6680    2.6785   -0.5279 C.2      1 ZINC000049643479    0.0500
9      C9     -6.8117    3.2583   -1.2698 C.ar     1 ZINC000049643479    0.0000
10     C10    -7.4453    4.4061   -0.7942 C.ar     1 ZINC000049643479   -0.1000
11     C11    -8.5097    4.9417   -1.4899 C.ar     1 ZINC000049643479   -0.1200
12     C12    -8.9491    4.3421   -2.6567 C.ar     1 ZINC000049643479   -0.1200
13     C13    -8.3250    3.2031   -3.1333 C.ar     1 ZINC000049643479   -0.1200
14     C14    -7.2556    2.6617   -2.4497 C.ar     1 ZINC000049643479   -0.0900
15     C15    -5.5702    2.5244    0.8398 C.2      1 ZINC000049643479   -0.0200
16     C16    -6.5813    2.9038    1.8457 C.ar     1 ZINC000049643479   -0.0100
17     C17    -7.9191    2.5438    1.6662 C.ar     1 ZINC000049643479   -0.0900
18     C18    -8.8587    2.9017    2.6104 C.ar     1 ZINC000049643479   -0.1200
19     C19    -8.4789    3.6157    3.7332 C.ar     1 ZINC000049643479   -0.1100
20     C20    -7.1556    3.9760    3.9173 C.ar     1 ZINC000049643479   -0.1200
21     C21    -6.2042    3.6195    2.9844 C.ar     1 ZINC000049643479   -0.1000
22     O22    -4.3695    1.9520    1.0766 O.3      1 ZINC000049643479   -0.1900
23     H23    -1.3763    2.7728    0.7285 H        1 ZINC000049643479    0.0600
24     H24    -1.5186    2.9891   -1.0325 H        1 ZINC000049643479    0.0700
25     H25    -2.3446    0.6614   -1.2517 H        1 ZINC000049643479    0.1100
26     H26    -2.2023    0.4451    0.5094 H        1 ZINC000049643479    0.0900
27     H27    -7.1036    4.8746    0.1170 H        1 ZINC000049643479    0.1200
28     H28    -9.0012    5.8305   -1.1226 H        1 ZINC000049643479    0.1200
29     H29    -9.7829    4.7648   -3.1975 H        1 ZINC000049643479    0.1200
30     H30    -8.6727    2.7393   -4.0445 H        1 ZINC000049643479    0.1200
31     H31    -6.7691    1.7725   -2.8227 H        1 ZINC000049643479    0.1300
32     H32    -8.2170    1.9869    0.7901 H        1 ZINC000049643479    0.1300
33     H33    -9.8934    2.6245    2.4728 H        1 ZINC000049643479    0.1300
34     H34    -9.2188    3.8933    4.4693 H        1 ZINC000049643479    0.1200
35     H35    -6.8663    4.5335    4.7959 H        1 ZINC000049643479    0.1300
36     H36    -5.1717    3.9010    3.1295 H        1 ZINC000049643479    0.1300
@<TRIPOS>BOND
1     1     2     ar
2     2     3     ar
3     2     4     1
4     4     5     1
5     4     23    1
6     4     24    1
7     5     6     1
8     5     25    1
9     5     26    1
10    6     22    1
11    6     7     2
12    7     8     1
13    8     9     1
14    8     15    2
15    9     14    ar
16    9     10    ar
17    10    11    ar
18    10    27    1
19    11    12    ar
20    11    28    1
21    12    13    ar
22    12    29    1
23    13    14    ar
24    13    30    1
25    14    31    1
26    15    16    1
27    15    22    1
28    16    21    ar
29    16    17    ar
30    17    18    ar
31    17    32    1
32    18    19    ar
33    18    33    1
34    19    20    ar
35    19    34    1
36    20    21    ar
37    20    35    1
38    21    36    1
@<TRIPOS>SUBSTRUCTURE
1   ZINC000049643479 1     RESIDUE    1   A     ZIN   1
