@<TRIPOS>MOLECULE
ZINC000001530572
28   27    0    0    0
SMALL
USER_CHARGES
NO_NAME
@<TRIPOS>ATOM
1 C1       -0.0225     1.8097     0.0120 C.3    1 <0>      -0.7000
2 S2        0.0021    -0.0041     0.0020 S.o2   1 <0>       2.6200
3 O3        0.8448    -0.4970     1.0346 O.2    1 <0>      -0.9700
4 O4       -1.3093    -0.5195    -0.1821 O.2    1 <0>      -0.9300
5 O5        0.7319    -0.3669    -1.2834 O.3    1 <0>      -0.7300
6 C6        2.1455    -0.1659    -1.2258 C.3    1 <0>       0.0600
7 C7        2.7718    -0.5609    -2.5646 C.3    1 <0>      -0.1200
8 C8        4.2853    -0.3457    -2.5029 C.3    1 <0>      -0.1200
9 C9        4.9116    -0.7407    -3.8418 C.3    1 <0>       0.0600
10 O10       6.3252    -0.5397    -3.7842 O.3    1 <0>      -0.7300
11 S11       7.0550    -0.9026    -5.0696 S.o2   1 <0>       2.6200
12 C12       6.6740     0.4589    -6.2062 C.3    1 <0>      -0.7000
13 O13       8.4296    -0.8820    -4.7099 O.2    1 <0>      -0.9300
14 O14       6.4286    -2.1027    -5.5013 O.2    1 <0>      -0.9700
15 H15       1.0001     2.1870     0.0043 H      1 <0>       0.1300
16 H16      -0.5497     2.1708    -0.8711 H      1 <0>       0.1300
17 H17      -0.5327     2.1613     0.9088 H      1 <0>       0.1400
18 H18       2.3551     0.8842    -1.0223 H      1 <0>       0.0900
19 H19       2.5679    -0.7812    -0.4314 H      1 <0>       0.1100
20 H20       2.5621    -1.6111    -2.7680 H      1 <0>       0.0900
21 H21       2.3494     0.0544    -3.3590 H      1 <0>       0.0900
22 H22       4.4950     0.7044    -2.2995 H      1 <0>       0.0900
23 H23       4.7077    -0.9610    -1.7086 H      1 <0>       0.0900
24 H24       4.7020    -1.7909    -4.0452 H      1 <0>       0.1100
25 H25       4.4892    -0.1254    -4.6362 H      1 <0>       0.0900
26 H26       7.0353     1.3966    -5.7840 H      1 <0>       0.1300
27 H27       7.1621     0.2798    -7.1642 H      1 <0>       0.1400
28 H28       5.5956     0.5183    -6.3534 H      1 <0>       0.1300
@<TRIPOS>BOND
1    1    2 1
2    1   15 1
3    1   16 1
4    1   17 1
5    2    3 2
6    2    4 2
7    2    5 1
8    5    6 1
9    6    7 1
10    6   18 1
11    6   19 1
12    7    8 1
13    7   20 1
14    7   21 1
15    8    9 1
16    8   22 1
17    8   23 1
18    9   10 1
19    9   24 1
20    9   25 1
21   10   11 1
22   11   12 1
23   11   13 2
24   11   14 2
25   12   26 1
26   12   27 1
27   12   28 1
