@<TRIPOS>MOLECULE
ZINC000008214514
8     7     1     0     0
SMALL
USER_CHARGES
@<TRIPOS>ATOM
1      N1     -0.0162    1.3436    0.0094 N.am     1 ZINC000008214514   -0.8700
2      C2      0.0021   -0.0041    0.0020 C.2      1 ZINC000008214514    0.7100
3      N3      1.1783   -0.6620   -0.0127 N.am     1 ZINC000008214514   -0.8700
4      O4     -1.0425   -0.6263    0.0086 O.2      1 ZINC000008214514   -0.6000
5      H5      0.8172    1.8399    0.0041 H        1 ZINC000008214514    0.4000
6      H6     -0.8627    1.8171    0.0160 H        1 ZINC000008214514    0.4200
7      H7      2.0116   -0.1656   -0.0180 H        1 ZINC000008214514    0.4000
8      H8      1.1914   -1.6319   -0.0181 H        1 ZINC000008214514    0.4200
@<TRIPOS>BOND
1     1     2     am
2     1     5     1
3     1     6     1
4     2     3     am
5     2     4     2
6     3     7     1
7     3     8     1
@<TRIPOS>SUBSTRUCTURE
1   ZINC000008214514 1     RESIDUE    1   A     ZIN   1
