@<TRIPOS>MOLECULE
ZINC000019632917
36    38    1     0     0
SMALL
USER_CHARGES
@<TRIPOS>ATOM
1      C1      0.7972    0.5017    0.6375 C.3      1 ZINC000019632917    0.0400
2      N2      0.4711   -0.9244    0.5580 N.pl3    1 ZINC000019632917   -0.6000
3      C3     -0.8175   -1.3178    0.3879 C.2      1 ZINC000019632917    0.6100
4      C4     -1.1184   -2.6843    0.3190 C.2      1 ZINC000019632917   -0.1800
5      N5     -2.2582   -3.2510    0.1018 N.2      1 ZINC000019632917   -0.0300
6      O6     -2.2887   -4.4533   -0.0905 O.2      1 ZINC000019632917   -0.1200
7      C7     -3.5178   -2.4992    0.0788 C.3      1 ZINC000019632917    0.1200
8      C8     -3.7121   -1.8003    1.3997 C.ar     1 ZINC000019632917   -0.1200
9      C9     -4.5129   -0.6760    1.4756 C.ar     1 ZINC000019632917   -0.0900
10     C10    -4.6911   -0.0349    2.6873 C.ar     1 ZINC000019632917   -0.1100
11     C11    -4.0689   -0.5183    3.8231 C.ar     1 ZINC000019632917   -0.1000
12     C12    -3.2688   -1.6430    3.7474 C.ar     1 ZINC000019632917   -0.1000
13     C13    -3.0940   -2.2866    2.5366 C.ar     1 ZINC000019632917   -0.1200
14     C14    -3.4593   -1.4752   -1.0315 C.ar     1 ZINC000019632917   -0.1200
15     C15    -4.2249   -1.5873   -2.1677 C.ar     1 ZINC000019632917   -0.0600
16     C16    -4.1414   -0.6043   -3.1431 C.ar     1 ZINC000019632917   -0.0200
17     Cl17   -5.1003   -0.7336   -4.5845 Cl       1 ZINC000019632917   -0.0200
18     C18    -3.2975    0.4790   -2.9722 C.ar     1 ZINC000019632917   -0.0700
19     C19    -2.5215    0.5868   -1.8313 C.ar     1 ZINC000019632917   -0.0800
20     C20    -2.5986   -0.4007   -0.8647 C.ar     1 ZINC000019632917    0.1300
21     N21    -1.8001   -0.3771    0.2924 N.pl3    1 ZINC000019632917   -0.6800
22     H22     1.8720    0.6216    0.7736 H        1 ZINC000019632917    0.1200
23     H23     0.4902    0.9965   -0.2840 H        1 ZINC000019632917    0.1000
24     H24     0.2720    0.9479    1.4819 H        1 ZINC000019632917    0.1000
25     H25     1.1757   -1.5876    0.6268 H        1 ZINC000019632917    0.4400
26     H26    -0.2844   -3.3542    0.4672 H        1 ZINC000019632917    0.2000
27     H27    -4.3478   -3.1834   -0.0974 H        1 ZINC000019632917    0.1700
28     H28    -4.9990   -0.2984    0.5882 H        1 ZINC000019632917    0.1300
29     H29    -5.3162    0.8438    2.7464 H        1 ZINC000019632917    0.1400
30     H30    -4.2076   -0.0169    4.7696 H        1 ZINC000019632917    0.1400
31     H31    -2.7825   -2.0204    4.6347 H        1 ZINC000019632917    0.1400
32     H32    -2.4690   -3.1654    2.4774 H        1 ZINC000019632917    0.1200
33     H33    -4.8844   -2.4323   -2.2998 H        1 ZINC000019632917    0.1600
34     H34    -3.2439    1.2438   -3.7328 H        1 ZINC000019632917    0.1600
35     H35    -1.8628    1.4321   -1.6969 H        1 ZINC000019632917    0.1600
36     H36    -1.9427    0.2814    0.9902 H        1 ZINC000019632917    0.4400
@<TRIPOS>BOND
1     1     2     1
2     1     22    1
3     1     23    1
4     1     24    1
5     2     3     1
6     2     25    1
7     3     21    1
8     3     4     2
9     4     5     1
10    4     26    1
11    5     6     2
12    5     7     1
13    7     8     1
14    7     14    1
15    7     27    1
16    8     13    ar
17    8     9     ar
18    9     10    ar
19    9     28    1
20    10    11    ar
21    10    29    1
22    11    12    ar
23    11    30    1
24    12    13    ar
25    12    31    1
26    13    32    1
27    14    20    ar
28    14    15    ar
29    15    16    ar
30    15    33    1
31    16    17    1
32    16    18    ar
33    18    19    ar
34    18    34    1
35    19    20    ar
36    19    35    1
37    20    21    1
38    21    36    1
@<TRIPOS>SUBSTRUCTURE
1   ZINC000019632917 1     RESIDUE    1   A     ZIN   1
