@<TRIPOS>MOLECULE
ZINC000001482164
31   31    0    0    0
SMALL
USER_CHARGES
NO_NAME
@<TRIPOS>ATOM
1 C1        0.6498    -0.3160     1.3526 C.3    1 <0>      -0.1500
2 C2        0.0021    -0.0041     0.0020 C.3    1 <0>      -0.0900
3 C3        0.8654    -0.5792    -1.1226 C.3    1 <0>      -0.1500
4 C4       -1.3917    -0.6328    -0.0525 C.3    1 <0>      -0.0700
5 H5       -1.9803    -0.2858     0.7967 H      1 <0>       0.0700
6 C6       -1.2663    -2.1567     0.0026 C.3    1 <0>      -0.1200
7 C7       -2.6601    -2.7854    -0.0520 C.3    1 <0>      -0.1200
8 C8       -3.3530    -2.3774    -1.3536 C.3    1 <0>      -0.0900
9 H9       -2.7644    -2.7244    -2.2028 H      1 <0>       0.0700
10 C10      -4.7468    -3.0061    -1.4081 C.3    1 <0>      -0.1500
11 C11      -3.4785    -0.8535    -1.4086 C.3    1 <0>      -0.1500
12 C12      -2.0847    -0.2248    -1.3541 C.3    1 <0>       0.1100
13 H13      -1.4961    -0.5718    -2.2034 H      1 <0>       0.0600
14 O14      -2.2018     1.1985    -1.4056 O.3    1 <0>      -0.5700
15 H15       1.5985     0.2149     1.4318 H      1 <0>       0.0500
16 H16      -0.0136     0.0036     2.1562 H      1 <0>       0.0500
17 H17       0.8261    -1.3887     1.4319 H      1 <0>       0.0600
18 H18      -0.0815     1.0758    -0.1201 H      1 <0>       0.0800
19 H19       0.4039    -0.3570    -2.0848 H      1 <0>       0.0500
20 H20       1.8583    -0.1313    -1.0838 H      1 <0>       0.0500
21 H21       0.9489    -1.6591    -1.0005 H      1 <0>       0.0600
22 H22      -0.6777    -2.5037    -0.8467 H      1 <0>       0.0700
23 H23      -0.7726    -2.4473     0.9299 H      1 <0>       0.0700
24 H24      -2.5707    -3.8710    -0.0127 H      1 <0>       0.0600
25 H25      -3.2487    -2.4383     0.7973 H      1 <0>       0.0600
26 H26      -5.3354    -2.6591    -0.5589 H      1 <0>       0.0500
27 H27      -5.2405    -2.7155    -2.3354 H      1 <0>       0.0500
28 H28      -4.6575    -4.0918    -1.3689 H      1 <0>       0.0600
29 H29      -3.9722    -0.5629    -2.3359 H      1 <0>       0.0600
30 H30      -4.0671    -0.5065    -0.5594 H      1 <0>       0.0700
31 H31      -2.6328     1.5290    -2.2056 H      1 <0>       0.3800
@<TRIPOS>BOND
1    1    2 1
2    1   15 1
3    1   16 1
4    1   17 1
5    2    3 1
6    2    4 1
7    2   18 1
8    3   19 1
9    3   20 1
10    3   21 1
11    4    5 1
12    4   12 1
13    4    6 1
14    6    7 1
15    6   22 1
16    6   23 1
17    7    8 1
18    7   24 1
19    7   25 1
20    8    9 1
21    8   10 1
22    8   11 1
23   10   26 1
24   10   27 1
25   10   28 1
26   11   12 1
27   11   29 1
28   11   30 1
29   12   13 1
30   12   14 1
31   14   31 1
