@<TRIPOS>MOLECULE
ZINC000000000215
34    34    1     0     0
SMALL
USER_CHARGES
@<TRIPOS>ATOM
1      C1      0.6033    1.7139   -2.4678 C.3      1 ZINC000000000215   -0.1500
2      C2      0.1792    0.2451   -2.4094 C.3      1 ZINC000000000215    0.0400
3      N3      0.7614   -0.3856   -1.2172 N.3      1 ZINC000000000215   -0.5200
4      C4      0.1978    0.1900    0.0112 C.3      1 ZINC000000000215    0.0400
5      C5      1.0724   -0.1994    1.2047 C.3      1 ZINC000000000215   -0.1500
6      C6      0.5764   -1.8426   -1.2490 C.3      1 ZINC000000000215    0.0400
7      H7      0.8025   -2.2590   -0.2674 H        1 ZINC000000000215    0.1100
8      C8     -0.8731   -2.1647   -1.6180 C.3      1 ZINC000000000215   -0.1800
9      C9      1.5016   -2.4442   -2.2752 C.2      1 ZINC000000000215    0.4000
10     O10     2.0374   -1.7338   -3.0989 O.2      1 ZINC000000000215   -0.4300
11     C11     1.7548   -3.8940   -2.2775 C.ar     1 ZINC000000000215   -0.1700
12     C12     1.1342   -4.7174   -1.3327 C.ar     1 ZINC000000000215   -0.0800
13     C13     1.3766   -6.0748   -1.3414 C.ar     1 ZINC000000000215   -0.1300
14     C14     2.2318   -6.6227   -2.2817 C.ar     1 ZINC000000000215   -0.0900
15     C15     2.8497   -5.8144   -3.2200 C.ar     1 ZINC000000000215   -0.1300
16     C16     2.6127   -4.4561   -3.2282 C.ar     1 ZINC000000000215   -0.0600
17     H17     0.2504    2.2298   -1.5749 H        1 ZINC000000000215    0.0500
18     H18     1.6903    1.7765   -2.5179 H        1 ZINC000000000215    0.0600
19     H19     0.1713    2.1819   -3.3524 H        1 ZINC000000000215    0.0600
20     H20    -0.9079    0.1824   -2.3593 H        1 ZINC000000000215    0.0300
21     H21     0.5321   -0.2708   -3.3024 H        1 ZINC000000000215    0.0900
22     H22     0.1667    1.2759   -0.0775 H        1 ZINC000000000215    0.0800
23     H23    -0.8122   -0.1915    0.1611 H        1 ZINC000000000215    0.0400
24     H24     2.0826    0.1815    1.0546 H        1 ZINC000000000215    0.0600
25     H25     0.6546    0.2282    2.1161 H        1 ZINC000000000215    0.0600
26     H26     1.1031   -1.2853    1.2937 H        1 ZINC000000000215    0.0500
27     H27    -1.0104   -3.2458   -1.6415 H        1 ZINC000000000215    0.0700
28     H28    -1.5423   -1.7295   -0.8757 H        1 ZINC000000000215    0.0700
29     H29    -1.0993   -1.7483   -2.5996 H        1 ZINC000000000215    0.0700
30     H30     0.4672   -4.2912   -0.5980 H        1 ZINC000000000215    0.1300
31     H31     0.8981   -6.7120   -0.6125 H        1 ZINC000000000215    0.1300
32     H32     2.4182   -7.6864   -2.2829 H        1 ZINC000000000215    0.1300
33     H33     3.5157   -6.2494   -3.9505 H        1 ZINC000000000215    0.1300
34     H34     3.0956   -3.8266   -3.9611 H        1 ZINC000000000215    0.1300
@<TRIPOS>BOND
1     1     2     1
2     1     17    1
3     1     18    1
4     1     19    1
5     2     3     1
6     2     20    1
7     2     21    1
8     3     4     1
9     3     6     1
10    4     5     1
11    4     22    1
12    4     23    1
13    5     24    1
14    5     25    1
15    5     26    1
16    6     7     1
17    6     8     1
18    6     9     1
19    8     27    1
20    8     28    1
21    8     29    1
22    9     10    2
23    9     11    1
24    11    16    ar
25    11    12    ar
26    12    13    ar
27    12    30    1
28    13    14    ar
29    13    31    1
30    14    15    ar
31    14    32    1
32    15    16    ar
33    15    33    1
34    16    34    1
@<TRIPOS>SUBSTRUCTURE
1   ZINC000000000215 1     RESIDUE    1   A     ZIN   1
