@<TRIPOS>MOLECULE
ZINC000000000271
27    28    1     0     0
SMALL
USER_CHARGES
@<TRIPOS>ATOM
1      C1     -0.0187    1.5258    0.0104 C.3      1 ZINC000000000271   -0.1700
2      C2      0.0021   -0.0041    0.0020 C.3      1 ZINC000000000271    0.1100
3      N3      0.6878   -0.4765   -1.2033 N.am     1 ZINC000000000271   -0.5800
4      C4      0.0767   -0.7235   -2.3676 C.2      1 ZINC000000000271    0.7000
5      O5     -1.1168   -0.5816   -2.5477 O.2      1 ZINC000000000271   -0.5400
6      N6      0.9311   -1.1464   -3.3168 N.am     1 ZINC000000000271   -0.7200
7      C7      2.2668   -1.1803   -2.6965 C.3      1 ZINC000000000271    0.1400
8      H8      2.9447   -0.4970   -3.2081 H        1 ZINC000000000271    0.1400
9      C9      2.8211   -2.5816   -2.7076 C.ar     1 ZINC000000000271   -0.1100
10     C10     1.9846   -3.6577   -2.4769 C.ar     1 ZINC000000000271   -0.1000
11     C11     2.4930   -4.9431   -2.4870 C.ar     1 ZINC000000000271   -0.1200
12     C12     3.8379   -5.1525   -2.7284 C.ar     1 ZINC000000000271   -0.1100
13     C13     4.6743   -4.0765   -2.9601 C.ar     1 ZINC000000000271   -0.1200
14     C14     4.1651   -2.7914   -2.9542 C.ar     1 ZINC000000000271   -0.0900
15     C15     2.0129   -0.7105   -1.2779 C.2      1 ZINC000000000271    0.5300
16     O16     2.8308   -0.5783   -0.3928 O.2      1 ZINC000000000271   -0.4600
17     H17     1.0039    1.9031    0.0027 H        1 ZINC000000000271    0.0600
18     H18    -0.5459    1.8868   -0.8726 H        1 ZINC000000000271    0.0600
19     H19    -0.5289    1.8773    0.9072 H        1 ZINC000000000271    0.0800
20     H20     0.5293   -0.3651    0.8851 H        1 ZINC000000000271    0.1000
21     H21    -1.0205   -0.3814    0.0098 H        1 ZINC000000000271    0.1000
22     H22     0.7105   -1.3834   -4.2312 H        1 ZINC000000000271    0.4400
23     H23     0.9339   -3.4941   -2.2883 H        1 ZINC000000000271    0.1200
24     H24     1.8396   -5.7837   -2.3060 H        1 ZINC000000000271    0.1300
25     H25     4.2353   -6.1567   -2.7356 H        1 ZINC000000000271    0.1300
26     H26     5.7251   -4.2401   -3.1483 H        1 ZINC000000000271    0.1300
27     H27     4.8185   -1.9508   -3.1352 H        1 ZINC000000000271    0.1300
@<TRIPOS>BOND
1     1     2     1
2     1     17    1
3     1     18    1
4     1     19    1
5     2     3     1
6     2     20    1
7     2     21    1
8     3     15    am
9     3     4     am
10    4     5     2
11    4     6     am
12    6     7     1
13    6     22    1
14    7     8     1
15    7     9     1
16    7     15    1
17    9     14    ar
18    9     10    ar
19    10    11    ar
20    10    23    1
21    11    12    ar
22    11    24    1
23    12    13    ar
24    12    25    1
25    13    14    ar
26    13    26    1
27    14    27    1
28    15    16    2
@<TRIPOS>SUBSTRUCTURE
1   ZINC000000000271 1     RESIDUE    1   A     ZIN   1
