@<TRIPOS>MOLECULE
ZINC000000537805
61    63    1     0     0
SMALL
USER_CHARGES
@<TRIPOS>ATOM
1      C1     -0.0173    1.4248    0.0099 C.3      1 ZINC000000537805    0.0200
2      O2      0.0021   -0.0041    0.0020 O.3      1 ZINC000000537805   -0.2800
3      C3      0.6248   -0.6174    1.0398 C.ar     1 ZINC000000537805    0.1900
4      C4      1.2015    0.1374    2.0499 C.ar     1 ZINC000000537805   -0.2100
5      C5      1.8351   -0.4876    3.1058 C.ar     1 ZINC000000537805   -0.0400
6      C6      1.8994   -1.8709    3.1650 C.ar     1 ZINC000000537805   -0.0800
7      Cl7     2.6993   -2.6427    4.4986 Cl       1 ZINC000000537805   -0.0600
8      C8      1.3302   -2.6368    2.1691 C.ar     1 ZINC000000537805   -0.0400
9      C9      0.6827   -2.0165    1.0981 C.ar     1 ZINC000000537805   -0.1600
10     C10     0.0717   -2.8295    0.0293 C.2      1 ZINC000000537805    0.5600
11     O11    -0.4911   -2.2861   -0.9015 O.2      1 ZINC000000537805   -0.5100
12     N12     0.1374   -4.1745    0.0845 N.am     1 ZINC000000537805   -0.7300
13     C13    -0.4693   -4.9818   -0.9768 C.3      1 ZINC000000537805    0.1300
14     C14    -0.2544   -6.4662   -0.6746 C.3      1 ZINC000000537805   -0.1000
15     C15    -0.8785   -7.2966   -1.7664 C.ar     1 ZINC000000537805   -0.0300
16     C16    -2.1971   -7.6980   -1.6613 C.ar     1 ZINC000000537805   -0.1300
17     C17    -2.7697   -8.4597   -2.6627 C.ar     1 ZINC000000537805   -0.0100
18     C18    -2.0237   -8.8196   -3.7695 C.ar     1 ZINC000000537805   -0.6400
19     S19    -2.7533   -9.7910   -5.0457 S.o2     1 ZINC000000537805    2.6600
20     O20    -1.6830  -10.4443   -5.7143 O.2      1 ZINC000000537805   -0.9800
21     O21    -3.8380  -10.4884   -4.4488 O.2      1 ZINC000000537805   -0.9800
22     N22    -3.4180   -8.7418   -6.1411 N.am     1 ZINC000000537805   -1.0000
23     C23    -4.0274   -9.2012   -7.1947 C.2      1 ZINC000000537805    0.6900
24     O24    -4.1179  -10.5341   -7.3953 O.3      1 ZINC000000537805   -0.5000
25     N25    -4.5787   -8.3311   -8.1031 N.pl3    1 ZINC000000537805   -0.7000
26     C26    -5.2649   -8.8484   -9.2896 C.3      1 ZINC000000537805    0.1200
27     C27    -6.7184   -9.1715   -8.9379 C.3      1 ZINC000000537805   -0.1400
28     C28    -7.4350   -9.7117  -10.1770 C.3      1 ZINC000000537805   -0.1200
29     C29    -7.4008   -8.6581  -11.2859 C.3      1 ZINC000000537805   -0.1300
30     C30    -5.9472   -8.3351  -11.6377 C.3      1 ZINC000000537805   -0.1200
31     C31    -5.2306   -7.7948  -10.3985 C.3      1 ZINC000000537805   -0.1200
32     C32    -0.7055   -8.4170   -3.8752 C.ar     1 ZINC000000537805   -0.0100
33     C33    -0.1341   -7.6521   -2.8756 C.ar     1 ZINC000000537805   -0.1300
34     H34     1.0053    1.8021    0.0021 H        1 ZINC000000537805    0.0600
35     H35    -0.5445    1.7859   -0.8732 H        1 ZINC000000537805    0.1100
36     H36    -0.5275    1.7763    0.9067 H        1 ZINC000000537805    0.0600
37     H37     1.1554    1.2157    2.0107 H        1 ZINC000000537805    0.1500
38     H38     2.2833    0.1048    3.8897 H        1 ZINC000000537805    0.1400
39     H39     1.3825   -3.7144    2.2188 H        1 ZINC000000537805    0.1400
40     H40     0.5864   -4.6081    0.8270 H        1 ZINC000000537805    0.4000
41     H41    -1.5378   -4.7722   -1.0269 H        1 ZINC000000537805    0.0700
42     H42    -0.0054   -4.7345   -1.9316 H        1 ZINC000000537805    0.0700
43     H43     0.8141   -6.6758   -0.6245 H        1 ZINC000000537805    0.0900
44     H44    -0.7184   -6.7135    0.2802 H        1 ZINC000000537805    0.0900
45     H45    -2.7799   -7.4168   -0.7966 H        1 ZINC000000537805    0.1300
46     H46    -3.7996   -8.7739   -2.5803 H        1 ZINC000000537805    0.1400
47     H47    -4.5878  -10.7792   -8.2041 H        1 ZINC000000537805    0.4200
48     H48    -4.5137   -7.3741   -7.9591 H        1 ZINC000000537805    0.4300
49     H49    -4.7643   -9.7538   -9.6330 H        1 ZINC000000537805    0.0900
50     H50    -6.7428   -9.9221   -8.1479 H        1 ZINC000000537805    0.0700
51     H51    -7.2190   -8.2662   -8.5945 H        1 ZINC000000537805    0.0800
52     H52    -6.9345  -10.6171  -10.5204 H        1 ZINC000000537805    0.0700
53     H53    -8.4706   -9.9419   -9.9264 H        1 ZINC000000537805    0.0700
54     H54    -7.9113   -9.0430  -12.1687 H        1 ZINC000000537805    0.0700
55     H55    -7.9013   -7.7528  -10.9425 H        1 ZINC000000537805    0.0700
56     H56    -5.4467   -9.2404  -11.9811 H        1 ZINC000000537805    0.0700
57     H57    -5.9228   -7.5845  -12.4277 H        1 ZINC000000537805    0.0700
58     H58    -5.7312   -6.8895  -10.0551 H        1 ZINC000000537805    0.0800
59     H59    -4.1951   -7.5647  -10.6491 H        1 ZINC000000537805    0.0800
60     H60    -0.1228   -8.6979   -4.7401 H        1 ZINC000000537805    0.1400
61     H61     0.8957   -7.3375   -2.9582 H        1 ZINC000000537805    0.1300
@<TRIPOS>BOND
1     1     2     1
2     1     34    1
3     1     35    1
4     1     36    1
5     2     3     1
6     3     9     ar
7     3     4     ar
8     4     5     ar
9     4     37    1
10    5     6     ar
11    5     38    1
12    6     7     1
13    6     8     ar
14    8     9     ar
15    8     39    1
16    9     10    1
17    10    11    2
18    10    12    am
19    12    13    1
20    12    40    1
21    13    14    1
22    13    41    1
23    13    42    1
24    14    15    1
25    14    43    1
26    14    44    1
27    15    33    ar
28    15    16    ar
29    16    17    ar
30    16    45    1
31    17    18    ar
32    17    46    1
33    18    19    1
34    18    32    ar
35    19    20    2
36    19    21    2
37    19    22    am
38    22    23    2
39    23    24    1
40    23    25    1
41    24    47    1
42    25    26    1
43    25    48    1
44    26    31    1
45    26    27    1
46    26    49    1
47    27    28    1
48    27    50    1
49    27    51    1
50    28    29    1
51    28    52    1
52    28    53    1
53    29    30    1
54    29    54    1
55    29    55    1
56    30    31    1
57    30    56    1
58    30    57    1
59    31    58    1
60    31    59    1
61    32    33    ar
62    32    60    1
63    33    61    1
@<TRIPOS>SUBSTRUCTURE
1   ZINC000000537805 1     RESIDUE    1   A     ZIN   1
