@<TRIPOS>MOLECULE
ZINC000003830314
28    27    1     0     0
SMALL
USER_CHARGES
@<TRIPOS>ATOM
1      C1     -0.0440    1.7107   -0.8861 C.3      1 ZINC000003830314   -0.1700
2      C2     -0.0857    0.2141   -0.5707 C.3      1 ZINC000003830314    0.0800
3      H3      0.3176    0.0417    0.4271 H        1 ZINC000003830314    0.1100
4      C4      0.7535   -0.5473   -1.5987 C.3      1 ZINC000003830314    0.0000
5      N5      0.8440   -1.9602   -1.2070 N.4      1 ZINC000003830314   -0.2700
6      C6     -0.4922   -2.5686   -1.2564 C.3      1 ZINC000003830314   -0.0500
7      C7      1.7390   -2.6684   -2.1319 C.3      1 ZINC000003830314   -0.0500
8      C8      1.3758   -2.0566    0.1590 C.3      1 ZINC000003830314   -0.0600
9      O9     -1.4592   -0.2538   -0.6251 O.3      1 ZINC000003830314   -0.3700
10     C10    -2.1685   -0.2014    0.5181 C.2      1 ZINC000003830314    0.6500
11     N11    -3.4493   -0.6205    0.5363 N.am     1 ZINC000003830314   -0.8200
12     O12    -1.6539    0.2237    1.5334 O.2      1 ZINC000003830314   -0.5600
13     H13     0.9871    2.0620   -0.8453 H        1 ZINC000003830314    0.0900
14     H14    -0.4473    1.8831   -1.8839 H        1 ZINC000003830314    0.0800
15     H15    -0.6419    2.2532   -0.1538 H        1 ZINC000003830314    0.0900
16     H16     0.2836   -0.4715   -2.5793 H        1 ZINC000003830314    0.1400
17     H17     1.7542   -0.1172   -1.6411 H        1 ZINC000003830314    0.1500
18     H18    -0.9549   -2.3516   -2.2191 H        1 ZINC000003830314    0.1200
19     H19    -0.4049   -3.6478   -1.1302 H        1 ZINC000003830314    0.1200
20     H20    -1.1082   -2.1579   -0.4564 H        1 ZINC000003830314    0.1200
21     H21     2.7304   -2.2170   -2.0953 H        1 ZINC000003830314    0.1200
22     H22     1.8061   -3.7168   -1.8413 H        1 ZINC000003830314    0.1200
23     H23     1.3444   -2.5969   -3.1455 H        1 ZINC000003830314    0.1200
24     H24     0.7117   -1.5311    0.8453 H        1 ZINC000003830314    0.1200
25     H25     1.4429   -3.1050    0.4496 H        1 ZINC000003830314    0.1300
26     H26     2.3672   -1.6052    0.1956 H        1 ZINC000003830314    0.1300
27     H27    -3.8601   -0.9599   -0.2743 H        1 ZINC000003830314    0.4100
28     H28    -3.9603   -0.5827    1.3599 H        1 ZINC000003830314    0.4400
@<TRIPOS>BOND
1     1     2     1
2     1     13    1
3     1     14    1
4     1     15    1
5     2     3     1
6     2     4     1
7     2     9     1
8     4     5     1
9     4     16    1
10    4     17    1
11    5     6     1
12    5     7     1
13    5     8     1
14    6     18    1
15    6     19    1
16    6     20    1
17    7     21    1
18    7     22    1
19    7     23    1
20    8     24    1
21    8     25    1
22    8     26    1
23    9     10    1
24    10    11    am
25    10    12    2
26    11    27    1
27    11    28    1
@<TRIPOS>SUBSTRUCTURE
1   ZINC000003830314 1     RESIDUE    1   A     ZIN   1
