@<TRIPOS>MOLECULE
ZINC000022010649
50   52    0    0    0
SMALL
USER_CHARGES
NO_NAME
@<TRIPOS>ATOM
1 C1       -0.0184     1.5028     0.0103 C.3    1 <0>      -0.1100
2 C2        0.0021    -0.0041     0.0020 C.2    1 <0>       0.1100
3 C3        0.0074    -0.7685    -1.1014 C.2    1 <0>      -0.2000
4 C4       -0.0058    -0.2834    -2.5281 C.3    1 <0>      -0.0600
5 C5        1.4321    -0.0990    -3.0174 C.3    1 <0>      -0.0100
6 N6        1.4193     0.3739    -4.4081 N.4    1 <0>      -0.5100
7 H7        0.9505    -0.3044    -4.9897 H      1 <0>       0.4300
8 H8        0.9310     1.2554    -4.4591 H      1 <0>       0.4300
9 C9        2.7999     0.5509    -4.8779 C.3    1 <0>       0.0500
10 C10       2.7867     1.0360    -6.3046 C.ar   1 <0>      -0.1600
11 C11       2.7892     0.1209    -7.3429 C.ar   1 <0>      -0.0900
12 C12       2.7772     0.5569    -8.6510 C.ar   1 <0>      -0.0900
13 C13       2.7625     1.9277    -8.9271 C.ar   1 <0>      -0.0300
14 C14       2.7491     2.4016   -10.3207 C.2    1 <0>      -0.0400
15 C15       2.7350     3.7238   -10.5830 C.2    1 <0>      -0.1700
16 C16       2.7217     4.1952   -11.9692 C.2    1 <0>       0.5500
17 O17       2.7235     3.3933   -12.8846 O.2    1 <0>      -0.5200
18 N18       2.7076     5.5171   -12.2314 N.am   1 <0>      -0.5900
19 O19       2.6947     5.9729   -13.5720 O.3    1 <0>      -0.3100
20 C20       2.7601     2.8460    -7.8725 C.ar   1 <0>      -0.1000
21 C21       2.7665     2.3942    -6.5697 C.ar   1 <0>      -0.0900
22 C22       0.0289    -2.1638    -0.6556 C.ar   1 <0>      -0.1000
23 C23       0.0425    -3.3934    -1.3163 C.ar   1 <0>      -0.0800
24 C24       0.0617    -4.5523    -0.5924 C.ar   1 <0>      -0.1300
25 C25       0.0674    -4.5169     0.7950 C.ar   1 <0>      -0.0900
26 C26       0.0543    -3.3143     1.4674 C.ar   1 <0>      -0.1200
27 C27       0.0351    -2.1224     0.7508 C.ar   1 <0>       0.1000
28 N28       0.0239    -0.7954     1.1181 N.pl3  1 <0>      -0.5900
29 H29       1.0042     1.8801     0.0026 H      1 <0>       0.0800
30 H30      -0.5455     1.8639    -0.8728 H      1 <0>       0.0900
31 H31      -0.5286     1.8543     0.9071 H      1 <0>       0.0800
32 H32      -0.5122    -1.0162    -3.1563 H      1 <0>       0.0900
33 H33      -0.5332     0.6689    -2.5832 H      1 <0>       0.0900
34 H34       1.9385     0.6337    -2.3891 H      1 <0>       0.1300
35 H35       1.9596    -1.0513    -2.9622 H      1 <0>       0.1300
36 H36       3.3063     1.2836    -4.2496 H      1 <0>       0.1400
37 H37       3.3273    -0.4014    -4.8227 H      1 <0>       0.1400
38 H38       2.8009    -0.9374    -7.1280 H      1 <0>       0.1400
39 H39       2.7795    -0.1583    -9.4602 H      1 <0>       0.1400
40 H40       2.7507     1.6899   -11.1331 H      1 <0>       0.1500
41 H41       2.7334     4.4355    -9.7706 H      1 <0>       0.1400
42 H42       2.7062     6.1563   -11.5018 H      1 <0>       0.4100
43 H43       2.6851     6.9359   -13.6599 H      1 <0>       0.3900
44 H44       2.7487     3.9063    -8.0778 H      1 <0>       0.1400
45 H45       2.7646     3.1022    -5.7541 H      1 <0>       0.1400
46 H46       0.0374    -3.4286    -2.3957 H      1 <0>       0.1200
47 H47       0.0721    -5.5034    -1.1041 H      1 <0>       0.1300
48 H48       0.0818    -5.4414     1.3532 H      1 <0>       0.1300
49 H49       0.0585    -3.2973     2.5473 H      1 <0>       0.1300
50 H50       0.0286    -0.4701     2.0319 H      1 <0>       0.4200
@<TRIPOS>BOND
1    1    2 1
2    1   29 1
3    1   30 1
4    1   31 1
5    2   28 1
6    2    3 2
7    3    4 1
8    3   22 1
9    4    5 1
10    4   32 1
11    4   33 1
12    5    6 1
13    5   34 1
14    5   35 1
15    6    7 1
16    6    8 1
17    6    9 1
18    9   10 1
19    9   36 1
20    9   37 1
21   10   21 ar
22   10   11 ar
23   11   12 ar
24   11   38 1
25   12   13 ar
26   12   39 1
27   13   14 1
28   13   20 ar
29   14   15 2
30   14   40 1
31   15   16 1
32   15   41 1
33   16   17 2
34   16   18 am
35   18   19 1
36   18   42 1
37   19   43 1
38   20   21 ar
39   20   44 1
40   21   45 1
41   22   27 ar
42   22   23 ar
43   23   24 ar
44   23   46 1
45   24   25 ar
46   24   47 1
47   25   26 ar
48   25   48 1
49   26   27 ar
50   26   49 1
51   27   28 1
52   28   50 1
