@<TRIPOS>MOLECULE
ZINC000100013500
84    88    1     0     0
SMALL
USER_CHARGES
@<TRIPOS>ATOM
1      C1     -0.0157    1.3058    0.0092 C.2      1 ZINC000100013500   -0.1900
2      C2      0.0021   -0.0041    0.0020 C.2      1 ZINC000100013500   -0.1300
3      C3      1.3161   -0.7391   -0.0145 C.3      1 ZINC000100013500   -0.0500
4      C4      2.4464    0.3090    0.0267 C.3      1 ZINC000100013500   -0.1600
5      C5      1.4697   -1.5716   -1.3061 C.3      1 ZINC000100013500   -0.1200
6      C6      0.3687   -2.6233   -1.5133 C.3      1 ZINC000100013500    0.1300
7      H7     -0.5628   -2.3013   -1.0715 H        1 ZINC000100013500    0.1000
8      O8      0.1657   -2.7069   -2.9622 O.3      1 ZINC000100013500   -0.3400
9      C9     -0.7501   -1.8845   -3.4977 C.2      1 ZINC000100013500    0.4700
10     O10    -1.3633   -1.1206   -2.7903 O.2      1 ZINC000100013500   -0.4800
11     C11    -1.0134   -1.9138   -4.9813 C.3      1 ZINC000100013500   -0.1100
12     S12    -2.2938   -0.6964   -5.3924 S.3      1 ZINC000100013500   -0.1300
13     C13    -2.4682   -0.8784   -7.1888 C.3      1 ZINC000100013500   -0.1000
14     H14    -2.6831   -1.9198   -7.4285 H        1 ZINC000100013500    0.1100
15     C15    -1.1644   -0.4569   -7.8725 C.3      1 ZINC000100013500   -0.1400
16     C16    -1.3730   -0.4737   -9.3952 C.3      1 ZINC000100013500    0.0400
17     H17    -0.4421   -0.3129   -9.9390 H        1 ZINC000100013500    0.1500
18     C18    -2.0421   -1.8173   -9.7661 C.3      1 ZINC000100013500   -0.1400
19     C19    -3.5570   -1.5503   -9.6473 C.3      1 ZINC000100013500   -0.1400
20     C20    -3.6657   -0.0697   -9.2157 C.3      1 ZINC000100013500    0.0500
21     H21    -4.5517    0.4151   -9.6256 H        1 ZINC000100013500    0.1600
22     C22    -3.6180    0.0052   -7.6810 C.3      1 ZINC000100013500   -0.1200
23     N23    -2.3950    0.5593   -9.7115 N.4      1 ZINC000100013500   -0.4000
24     H24    -2.2084    1.4195   -9.2183 H        1 ZINC000100013500    0.4300
25     C25    -2.4670    0.7987  -11.1591 C.3      1 ZINC000100013500   -0.0400
26     C26     0.7480   -4.0147   -1.0106 C.3      1 ZINC000100013500   -0.0300
27     C27     1.4885   -4.5752   -2.2373 C.3      1 ZINC000100013500   -0.1800
28     C28     1.7343   -4.1500    0.0705 C.3      1 ZINC000100013500   -0.1500
29     H29     2.4361   -3.3293   -0.0332 H        1 ZINC000100013500    0.1100
30     C30     2.5649   -5.3712    0.2787 C.2      1 ZINC000100013500    0.3800
31     O31     2.8464   -6.2433   -0.5061 O.2      1 ZINC000100013500   -0.4300
32     C32     3.0177   -5.3259    1.7400 C.3      1 ZINC000100013500   -0.1800
33     C33     2.2018   -4.1946    2.4215 C.3      1 ZINC000100013500   -0.1000
34     C34     1.0306   -3.9966    1.4866 C.3      1 ZINC000100013500   -0.0400
35     C35    -0.0019   -5.1108    1.5860 C.3      1 ZINC000100013500   -0.1100
36     C36    -1.0631   -4.9174    0.5005 C.3      1 ZINC000100013500   -0.1200
37     C37    -0.4139   -4.9828   -0.8823 C.3      1 ZINC000100013500   -0.0800
38     H38    -0.0164   -6.0031   -1.0149 H        1 ZINC000100013500    0.0800
39     C39    -1.4752   -4.7514   -1.9524 C.3      1 ZINC000100013500   -0.1500
40     C40     0.3768   -2.6421    1.3628 C.3      1 ZINC000100013500   -0.0700
41     H41    -0.3400   -2.6333    0.5522 H        1 ZINC000100013500    0.1000
42     C42    -0.3708   -2.3298    2.6753 C.3      1 ZINC000100013500   -0.1300
43     C43     1.4526   -1.6036    1.1710 C.3      1 ZINC000100013500    0.1200
44     H44     2.4276   -2.0898    1.1343 H        1 ZINC000100013500    0.0600
45     O45     1.4552   -0.7549    2.3309 O.3      1 ZINC000100013500   -0.5600
46     H46     0.9122    1.8585    0.0033 H        1 ZINC000100013500    0.1000
47     H47    -0.9582    1.8330    0.0166 H        1 ZINC000100013500    0.1000
48     H48    -0.9258   -0.5567    0.0079 H        1 ZINC000100013500    0.1100
49     H49     2.3580    0.9032    0.9362 H        1 ZINC000100013500    0.0700
50     H50     3.4117   -0.1970    0.0157 H        1 ZINC000100013500    0.0600
51     H51     2.3684    0.9618   -0.8428 H        1 ZINC000100013500    0.0700
52     H52     1.4501   -0.8852   -2.1667 H        1 ZINC000100013500    0.0700
53     H53     2.4481   -2.0582   -1.3112 H        1 ZINC000100013500    0.0800
54     H54    -0.0961   -1.6717   -5.5179 H        1 ZINC000100013500    0.1200
55     H55    -1.3517   -2.9088   -5.2706 H        1 ZINC000100013500    0.1200
56     H56    -0.8929    0.5490   -7.5523 H        1 ZINC000100013500    0.1000
57     H57    -0.3701   -1.1538   -7.6051 H        1 ZINC000100013500    0.1100
58     H58    -1.7856   -2.0997  -10.7871 H        1 ZINC000100013500    0.1000
59     H59    -1.7385   -2.5975   -9.0681 H        1 ZINC000100013500    0.1100
60     H60    -4.0455   -1.7016  -10.6099 H        1 ZINC000100013500    0.1000
61     H61    -3.9984   -2.1993   -8.8909 H        1 ZINC000100013500    0.1100
62     H62    -4.5539   -0.3709   -7.2678 H        1 ZINC000100013500    0.1200
63     H63    -3.4692    1.0394   -7.3705 H        1 ZINC000100013500    0.1000
64     H64    -3.2999    1.4676  -11.3758 H        1 ZINC000100013500    0.1200
65     H65    -1.5370    1.2547  -11.4986 H        1 ZINC000100013500    0.1200
66     H66    -2.6175   -0.1485  -11.6770 H        1 ZINC000100013500    0.1200
67     H67     2.3480   -3.9439   -2.4627 H        1 ZINC000100013500    0.0500
68     H68     1.8281   -5.5889   -2.0248 H        1 ZINC000100013500    0.0800
69     H69     0.8140   -4.5900   -3.0934 H        1 ZINC000100013500    0.0700
70     H70     2.8081   -6.2829    2.2204 H        1 ZINC000100013500    0.1000
71     H71     4.0838   -5.1089    1.7915 H        1 ZINC000100013500    0.1000
72     H72     1.8525   -4.5109    3.4059 H        1 ZINC000100013500    0.0800
73     H73     2.7938   -3.2845    2.5044 H        1 ZINC000100013500    0.0800
74     H74     0.4941   -6.0724    1.4407 H        1 ZINC000100013500    0.0600
75     H75    -0.4685   -5.0972    2.5690 H        1 ZINC000100013500    0.0800
76     H76    -1.8037   -5.7204    0.5810 H        1 ZINC000100013500    0.0700
77     H77    -1.5713   -3.9656    0.6275 H        1 ZINC000100013500    0.0700
78     H78    -1.9278   -3.7703   -1.8092 H        1 ZINC000100013500    0.0500
79     H79    -1.0131   -4.7979   -2.9385 H        1 ZINC000100013500    0.0600
80     H80    -2.2434   -5.5208   -1.8746 H        1 ZINC000100013500    0.0600
81     H81     0.3372   -2.3241    3.5042 H        1 ZINC000100013500    0.0700
82     H82    -0.8478   -1.3528    2.5982 H        1 ZINC000100013500    0.0600
83     H83    -1.1300   -3.0919    2.8512 H        1 ZINC000100013500    0.0500
84     H84     2.1175   -0.0509    2.3016 H        1 ZINC000100013500    0.3700
@<TRIPOS>BOND
1     1     2     2
2     1     46    1
3     1     47    1
4     2     3     1
5     2     48    1
6     3     43    1
7     3     4     1
8     3     5     1
9     4     49    1
10    4     50    1
11    4     51    1
12    5     6     1
13    5     52    1
14    5     53    1
15    6     7     1
16    6     8     1
17    6     26    1
18    8     9     1
19    9     10    2
20    9     11    1
21    11    12    1
22    11    54    1
23    11    55    1
24    12    13    1
25    13    14    1
26    13    22    1
27    13    15    1
28    15    16    1
29    15    56    1
30    15    57    1
31    16    17    1
32    16    23    1
33    16    18    1
34    18    19    1
35    18    58    1
36    18    59    1
37    19    20    1
38    19    60    1
39    19    61    1
40    20    21    1
41    20    22    1
42    20    23    1
43    22    62    1
44    22    63    1
45    23    24    1
46    23    25    1
47    25    64    1
48    25    65    1
49    25    66    1
50    26    37    1
51    26    27    1
52    26    28    1
53    27    67    1
54    27    68    1
55    27    69    1
56    28    29    1
57    28    34    1
58    28    30    1
59    30    31    2
60    30    32    1
61    32    33    1
62    32    70    1
63    32    71    1
64    33    34    1
65    33    72    1
66    33    73    1
67    34    35    1
68    34    40    1
69    35    36    1
70    35    74    1
71    35    75    1
72    36    37    1
73    36    76    1
74    36    77    1
75    37    38    1
76    37    39    1
77    39    78    1
78    39    79    1
79    39    80    1
80    40    41    1
81    40    42    1
82    40    43    1
83    42    81    1
84    42    82    1
85    42    83    1
86    43    44    1
87    43    45    1
88    45    84    1
@<TRIPOS>SUBSTRUCTURE
1   ZINC000100013500 1     RESIDUE    1   A     ZIN   1
