@<TRIPOS>MOLECULE
ZINC000000014360
42    43    1     0     0
SMALL
USER_CHARGES
@<TRIPOS>ATOM
1      C1     -0.0178    1.4608    0.0101 C.3      1 ZINC000000014360    0.0800
2      N2      0.0021   -0.0041    0.0020 N.am     1 ZINC000000014360   -1.1200
3      S3      0.7184   -0.8155   -1.2513 S.o2     1 ZINC000000014360    2.6100
4      O4      0.5253   -2.1877   -0.9363 O.2      1 ZINC000000014360   -0.9500
5      O5      0.1398   -0.2428   -2.4159 O.2      1 ZINC000000014360   -0.9500
6      C6      2.4742   -0.3758   -1.1306 C.3      1 ZINC000000014360   -0.5800
7      C7      3.2407   -1.0617   -2.2319 C.ar     1 ZINC000000014360   -0.1100
8      C8      3.7738   -2.3248   -2.0161 C.ar     1 ZINC000000014360   -0.0800
9      C9      4.4783   -2.9694   -3.0095 C.ar     1 ZINC000000014360   -0.1100
10     C10     4.6581   -2.3502   -4.2419 C.ar     1 ZINC000000014360    0.1000
11     N11     5.2950   -2.7208   -5.4050 N.pl3    1 ZINC000000014360   -0.5900
12     C12     5.1744   -1.7273   -6.3382 C.2      1 ZINC000000014360    0.0900
13     C13     4.4731   -0.7027   -5.8280 C.2      1 ZINC000000014360   -0.2000
14     C14     4.1208    0.5817   -6.5331 C.3      1 ZINC000000014360   -0.0600
15     C15     5.1588    1.6525   -6.1913 C.3      1 ZINC000000014360   -0.0100
16     N16     4.8154    2.9045   -6.8787 N.4      1 ZINC000000014360   -0.3900
17     H17     4.7271    2.7313   -7.8688 H        1 ZINC000000014360    0.4300
18     C18     3.5419    3.4168   -6.3557 C.3      1 ZINC000000014360   -0.0500
19     C19     5.8741    3.8963   -6.6477 C.3      1 ZINC000000014360   -0.0500
20     C20     4.1152   -1.0699   -4.4557 C.ar     1 ZINC000000014360   -0.1000
21     C21     3.4006   -0.4373   -3.4370 C.ar     1 ZINC000000014360   -0.0600
22     H22     1.0048    1.8381    0.0023 H        1 ZINC000000014360    0.0600
23     H23    -0.5450    1.8219   -0.8730 H        1 ZINC000000014360    0.0700
24     H24    -0.5280    1.8123    0.9069 H        1 ZINC000000014360    0.0900
25     H25    -0.4044   -0.4986    0.7308 H        1 ZINC000000014360    0.4200
26     H26     2.5858    0.7041   -1.2283 H        1 ZINC000000014360    0.1400
27     H27     2.8631   -0.6952   -0.1637 H        1 ZINC000000014360    0.1500
28     H28     3.6353   -2.8073   -1.0598 H        1 ZINC000000014360    0.1400
29     H29     4.8899   -3.9519   -2.8316 H        1 ZINC000000014360    0.1300
30     H30     5.7602   -3.5608   -5.5423 H        1 ZINC000000014360    0.4300
31     H31     5.5834   -1.7621   -7.3371 H        1 ZINC000000014360    0.1800
32     H32     4.1125    0.4144   -7.6102 H        1 ZINC000000014360    0.0900
33     H33     3.1348    0.9152   -6.2096 H        1 ZINC000000014360    0.0900
34     H34     5.1672    1.8198   -5.1143 H        1 ZINC000000014360    0.1300
35     H35     6.1449    1.3190   -6.5149 H        1 ZINC000000014360    0.1300
36     H36     3.6373    3.6039   -5.2861 H        1 ZINC000000014360    0.1200
37     H37     3.2870    4.3458   -6.8657 H        1 ZINC000000014360    0.1200
38     H38     2.7563    2.6809   -6.5271 H        1 ZINC000000014360    0.1300
39     H39     6.8191    3.5161   -7.0357 H        1 ZINC000000014360    0.1200
40     H40     5.6193    4.8253   -7.1577 H        1 ZINC000000014360    0.1200
41     H41     5.9696    4.0834   -5.5781 H        1 ZINC000000014360    0.1200
42     H42     2.9774    0.5429   -3.5999 H        1 ZINC000000014360    0.1300
@<TRIPOS>BOND
1     1     2     1
2     1     22    1
3     1     23    1
4     1     24    1
5     2     3     am
6     2     25    1
7     3     4     2
8     3     5     2
9     3     6     1
10    6     7     1
11    6     26    1
12    6     27    1
13    7     21    ar
14    7     8     ar
15    8     9     ar
16    8     28    1
17    9     10    ar
18    9     29    1
19    10    20    ar
20    10    11    1
21    11    12    1
22    11    30    1
23    12    13    2
24    12    31    1
25    13    14    1
26    13    20    1
27    14    15    1
28    14    32    1
29    14    33    1
30    15    16    1
31    15    34    1
32    15    35    1
33    16    17    1
34    16    18    1
35    16    19    1
36    18    36    1
37    18    37    1
38    18    38    1
39    19    39    1
40    19    40    1
41    19    41    1
42    20    21    ar
43    21    42    1
@<TRIPOS>SUBSTRUCTURE
1   ZINC000000014360 1     RESIDUE    1   A     ZIN   1
