@<TRIPOS>MOLECULE
ZINC000000897288
12   12    0    0    0
SMALL
USER_CHARGES
NO_NAME
@<TRIPOS>ATOM
1 C1       -0.0184     1.5028     0.0103 C.3    1 <0>      -0.0800
2 C2        0.0021    -0.0041     0.0020 C.2    1 <0>      -0.2400
3 C3        0.0078    -0.7942    -1.0965 C.2    1 <0>       0.0500
4 N4        0.0272    -2.0776    -0.6800 N.pl3  1 <0>      -0.4800
5 N5        0.0335    -2.0762     0.7208 N.2    1 <0>      -0.3000
6 C6        0.0245    -0.8330     1.1284 C.2    1 <0>       0.0500
7 H7        1.0042     1.8801     0.0026 H      1 <0>       0.0600
8 H8       -0.5455     1.8639    -0.8728 H      1 <0>       0.0600
9 H9       -0.5286     1.8543     0.9071 H      1 <0>       0.0600
10 H10      -0.0014    -0.4578    -2.1228 H      1 <0>       0.1800
11 H11       0.0350    -2.8625    -1.2499 H      1 <0>       0.4400
12 H12       0.0263    -0.5037     2.1570 H      1 <0>       0.1800
@<TRIPOS>BOND
1    1    2 1
2    1    7 1
3    1    8 1
4    1    9 1
5    2    6 1
6    2    3 2
7    3    4 1
8    3   10 1
9    4    5 1
10    4   11 1
11    5    6 2
12    6   12 1
