@<TRIPOS>MOLECULE
ZINC000019362735
43   45    0    0    0
SMALL
USER_CHARGES
NO_NAME
@<TRIPOS>ATOM
1 C1       -0.0178     1.4648     0.0101 C.3    1 <0>       0.0200
2 N2        0.0021    -0.0041     0.0020 N.3    1 <0>      -0.5400
3 C3       -1.3607    -0.5489    -0.0764 C.3    1 <0>       0.0300
4 C4       -1.2932    -2.0762    -0.1426 C.3    1 <0>       0.0000
5 N5       -0.6107    -2.5886     1.0529 N.4    1 <0>      -0.3800
6 H6       -1.1152    -2.2999     1.8777 H      1 <0>       0.4100
7 C7       -0.5618    -4.0557     0.9975 C.3    1 <0>       0.1300
8 H8       -0.0172    -4.3677     0.1063 H      1 <0>       0.1500
9 C9       -1.9648    -4.6035     0.9464 C.ar   1 <0>      -0.1300
10 C10      -2.9602    -4.0271     1.7131 C.ar   1 <0>      -0.1200
11 C11      -4.2471    -4.5296     1.6662 C.ar   1 <0>      -0.1000
12 C12      -4.5387    -5.6081     0.8522 C.ar   1 <0>      -0.0900
13 C13      -3.5435    -6.1839     0.0848 C.ar   1 <0>      -0.1000
14 C14      -2.2575    -5.6788     0.1285 C.ar   1 <0>      -0.0900
15 C15       0.1384    -4.5816     2.2240 C.ar   1 <0>      -0.1300
16 C16      -0.1008    -4.0043     3.4571 C.ar   1 <0>      -0.1100
17 C17       0.5411    -4.4863     4.5822 C.ar   1 <0>      -0.1000
18 C18       1.4232    -5.5466     4.4743 C.ar   1 <0>      -0.0100
19 Cl19      2.2294    -6.1529     5.8871 Cl     1 <0>      -0.0400
20 C20       1.6622    -6.1240     3.2399 C.ar   1 <0>      -0.1000
21 C21       1.0154    -5.6448     2.1163 C.ar   1 <0>      -0.0700
22 C22       0.7570    -2.0553     1.1043 C.3    1 <0>       0.0000
23 C23       0.7065    -0.5278     1.1808 C.3    1 <0>       0.0300
24 H24       1.0047     1.8421     0.0024 H      1 <0>       0.0800
25 H25      -0.5450     1.8259    -0.8730 H      1 <0>       0.0800
26 H26      -0.5280     1.8163     0.9069 H      1 <0>       0.0400
27 H27      -1.9242    -0.2477     0.8067 H      1 <0>       0.0600
28 H28      -1.8539    -0.1676    -0.9705 H      1 <0>       0.1300
29 H29      -2.3035    -2.4830    -0.1865 H      1 <0>       0.1400
30 H30      -0.7413    -2.3773    -1.0330 H      1 <0>       0.1400
31 H31      -2.7323    -3.1844     2.3490 H      1 <0>       0.1100
32 H32      -5.0246    -4.0797     2.2658 H      1 <0>       0.1400
33 H33      -5.5440    -6.0011     0.8161 H      1 <0>       0.1400
34 H34      -3.7713    -7.0268    -0.5508 H      1 <0>       0.1400
35 H35      -1.4800    -6.1286    -0.4711 H      1 <0>       0.1300
36 H36      -0.7891    -3.1764     3.5412 H      1 <0>       0.1200
37 H37       0.3545    -4.0350     5.5455 H      1 <0>       0.1500
38 H38       2.3509    -6.9515     3.1549 H      1 <0>       0.1500
39 H39       1.2016    -6.0956     1.1527 H      1 <0>       0.1400
40 H40       1.2666    -2.4465     1.9848 H      1 <0>       0.1400
41 H41       1.2983    -2.3564     0.2075 H      1 <0>       0.1400
42 H42       1.7215    -0.1310     1.2040 H      1 <0>       0.1300
43 H43       0.1771    -0.2262     2.0846 H      1 <0>       0.0600
@<TRIPOS>BOND
1    1    2 1
2    1   24 1
3    1   25 1
4    1   26 1
5    2   23 1
6    2    3 1
7    3    4 1
8    3   27 1
9    3   28 1
10    4    5 1
11    4   29 1
12    4   30 1
13    5    6 1
14    5    7 1
15    5   22 1
16    7    8 1
17    7    9 1
18    7   15 1
19    9   14 ar
20    9   10 ar
21   10   11 ar
22   10   31 1
23   11   12 ar
24   11   32 1
25   12   13 ar
26   12   33 1
27   13   14 ar
28   13   34 1
29   14   35 1
30   15   21 ar
31   15   16 ar
32   16   17 ar
33   16   36 1
34   17   18 ar
35   17   37 1
36   18   19 1
37   18   20 ar
38   20   21 ar
39   20   38 1
40   21   39 1
41   22   23 1
42   22   40 1
43   22   41 1
44   23   42 1
45   23   43 1
