@<TRIPOS>MOLECULE
ZINC000001532517
9     8     1     0     0
SMALL
USER_CHARGES
@<TRIPOS>ATOM
1      C1     -0.0184    1.5028    0.0103 C.3      1 ZINC000001532517   -0.2000
2      C2      0.0021   -0.0041    0.0020 C.2      1 ZINC000001532517    0.2900
3      O3      0.0203   -0.6135    1.0445 O.2      1 ZINC000001532517   -0.4700
4      C4     -0.0001   -0.7438   -1.2954 C.2      1 ZINC000001532517    0.4600
5      O5      0.0164   -1.9641   -1.3022 O.co2    1 ZINC000001532517   -0.6600
6      O6     -0.0185   -0.1280   -2.3490 O.co2    1 ZINC000001532517   -0.6700
7      H7      1.0042    1.8801    0.0026 H        1 ZINC000001532517    0.0800
8      H8     -0.5455    1.8639   -0.8728 H        1 ZINC000001532517    0.0900
9      H9     -0.5286    1.8543    0.9071 H        1 ZINC000001532517    0.0600
@<TRIPOS>BOND
1     1     2     1
2     1     7     1
3     1     8     1
4     1     9     1
5     2     3     2
6     2     4     1
7     4     5     ar
8     4     6     ar
@<TRIPOS>SUBSTRUCTURE
1   ZINC000001532517 1     RESIDUE    1   A     ZIN   1
