@<TRIPOS>MOLECULE
ZINC000002016037
43    46    1     0     0
SMALL
USER_CHARGES
@<TRIPOS>ATOM
1      Cl1     0.0021   -0.0041    0.0020 Cl       1 ZINC000002016037   -0.0300
2      C2     -0.0215    1.7317    0.0116 C.ar     1 ZINC000002016037   -0.0100
3      C3     -1.2286    2.4072    0.0325 C.ar     1 ZINC000002016037   -0.1000
4      C4     -1.2475    3.7894    0.0396 C.ar     1 ZINC000002016037   -0.0600
5      C5     -0.0607    4.4974    0.0262 C.ar     1 ZINC000002016037   -0.1000
6      C6     -0.0822    6.0042    0.0345 C.3      1 ZINC000002016037    0.1200
7      H7      0.7458    6.3827   -0.5649 H        1 ZINC000002016037    0.1000
8      C8      0.0569    6.5084    1.4723 C.3      1 ZINC000002016037    0.0700
9      N9      0.1560    7.9700    1.4699 N.pl3    1 ZINC000002016037   -0.4100
10     C10     1.3069    8.7059    1.3826 C.2      1 ZINC000002016037    0.0200
11     C11     0.9438   10.0023    1.4148 C.2      1 ZINC000002016037    0.0100
12     N12    -0.3923   10.0565    1.5189 N.pl3    1 ZINC000002016037   -0.4800
13     H13    -0.9196   10.8695    1.5625 H        1 ZINC000002016037    0.4700
14     C14    -0.8714    8.8430    1.5474 C.cat    1 ZINC000002016037    0.2900
15     O15    -1.3179    6.4660   -0.5148 O.3      1 ZINC000002016037   -0.3600
16     C16    -1.2247    7.7307   -1.1734 C.3      1 ZINC000002016037    0.1200
17     C17    -2.5782    8.1180   -1.7112 C.2      1 ZINC000002016037   -0.1200
18     C18    -3.6461    7.3608   -1.5564 C.2      1 ZINC000002016037   -0.1600
19     S19    -5.0593    8.0895   -2.2947 S.3      1 ZINC000002016037    0.1500
20     C20    -4.1395    9.4882   -2.8346 C.ar     1 ZINC000002016037   -0.1400
21     C21    -4.5426   10.6218   -3.5488 C.ar     1 ZINC000002016037    0.0000
22     Cl22   -6.1987   10.7919   -4.0405 Cl       1 ZINC000002016037   -0.0400
23     C23    -3.6294   11.6025   -3.8618 C.ar     1 ZINC000002016037   -0.0900
24     C24    -2.3039   11.4721   -3.4708 C.ar     1 ZINC000002016037   -0.1000
25     C25    -1.8912   10.3772   -2.7754 C.ar     1 ZINC000002016037   -0.0900
26     C26    -2.8068    9.3581   -2.4348 C.ar     1 ZINC000002016037   -0.0600
27     C27     1.1474    3.8229    0.0058 C.ar     1 ZINC000002016037   -0.0100
28     Cl28    2.6382    4.7123   -0.0109 Cl       1 ZINC000002016037   -0.0500
29     C29     1.1671    2.4399    0.0040 C.ar     1 ZINC000002016037   -0.1000
30     H30    -2.1564    1.8545    0.0429 H        1 ZINC000002016037    0.1500
31     H31    -2.1901    4.3163    0.0552 H        1 ZINC000002016037    0.1500
32     H32    -0.8160    6.2044    2.0500 H        1 ZINC000002016037    0.1400
33     H33     0.9552    6.0840    1.9209 H        1 ZINC000002016037    0.1400
34     H34     2.3128    8.3209    1.3034 H        1 ZINC000002016037    0.2200
35     H35     1.6114   10.8498    1.3655 H        1 ZINC000002016037    0.2300
36     H36    -1.9160    8.5803    1.6266 H        1 ZINC000002016037    0.2600
37     H37    -0.8860    8.4857   -0.4640 H        1 ZINC000002016037    0.0500
38     H38    -0.5134    7.6602   -1.9963 H        1 ZINC000002016037    0.0800
39     H39    -3.6499    6.4118   -1.0407 H        1 ZINC000002016037    0.1800
40     H40    -3.9447   12.4757   -4.4135 H        1 ZINC000002016037    0.1500
41     H41    -1.5936   12.2462   -3.7209 H        1 ZINC000002016037    0.1400
42     H42    -0.8566   10.2895   -2.4782 H        1 ZINC000002016037    0.1300
43     H43     2.1097    1.9130   -0.0120 H        1 ZINC000002016037    0.1500
@<TRIPOS>BOND
1     1     2     1
2     2     29    ar
3     2     3     ar
4     3     4     ar
5     3     30    1
6     4     5     ar
7     4     31    1
8     5     6     1
9     5     27    ar
10    6     7     1
11    6     8     1
12    6     15    1
13    8     9     1
14    8     32    1
15    8     33    1
16    9     14    ar
17    9     10    1
18    10    11    2
19    10    34    1
20    11    12    1
21    11    35    1
22    12    13    1
23    12    14    ar
24    14    36    1
25    15    16    1
26    16    17    1
27    16    37    1
28    16    38    1
29    17    26    1
30    17    18    2
31    18    19    1
32    18    39    1
33    19    20    1
34    20    26    ar
35    20    21    ar
36    21    22    1
37    21    23    ar
38    23    24    ar
39    23    40    1
40    24    25    ar
41    24    41    1
42    25    26    ar
43    25    42    1
44    27    28    1
45    27    29    ar
46    29    43    1
@<TRIPOS>SUBSTRUCTURE
1   ZINC000002016037 1     RESIDUE    1   A     ZIN   1
