@<TRIPOS>MOLECULE
ZINC000005133378
14   14    0    0    0
SMALL
USER_CHARGES
NO_NAME
@<TRIPOS>ATOM
1 O1       -0.0164     1.3556     0.0095 O.3    1 <0>      -0.5000
2 C2        0.0021    -0.0041     0.0020 C.ar   1 <0>       0.1000
3 C3        0.0057    -0.6909    -1.2029 C.ar   1 <0>      -0.1300
4 C4        0.0245    -2.0721    -1.2105 C.ar   1 <0>      -0.1300
5 C5        0.0401    -2.7721    -0.0132 C.ar   1 <0>       0.1000
6 O6        0.0581    -4.1317    -0.0207 O.3    1 <0>      -0.5000
7 C7        0.0378    -2.0852     1.1917 C.ar   1 <0>      -0.1300
8 C8        0.0229    -0.7039     1.1993 C.ar   1 <0>      -0.1300
9 H9        0.8616     1.7609     0.0033 H      1 <0>       0.3900
10 H10      -0.0064    -0.1459    -2.1352 H      1 <0>       0.1300
11 H11       0.0266    -2.6070    -2.1488 H      1 <0>       0.1300
12 H12       0.9466    -4.5133    -0.0275 H      1 <0>       0.3900
13 H13       0.0503    -2.6302     2.1240 H      1 <0>       0.1300
14 H14       0.0212    -0.1691     2.1375 H      1 <0>       0.1300
@<TRIPOS>BOND
1    1    2 1
2    1    9 1
3    2    8 ar
4    2    3 ar
5    3    4 ar
6    3   10 1
7    4    5 ar
8    4   11 1
9    5    6 1
10    5    7 ar
11    6   12 1
12    7    8 ar
13    7   13 1
14    8   14 1
