@<TRIPOS>MOLECULE
ZINC000000004840
28   29    0    0    0
SMALL
USER_CHARGES
NO_NAME
@<TRIPOS>ATOM
1 C1       -1.6765    -5.1886    -1.8720 C.3    1 <0>      -0.0800
2 C2       -1.0033    -4.0614    -1.1322 C.2    1 <0>       0.0700
3 C3       -1.6102    -2.9569    -0.5855 C.2    1 <0>      -0.2800
4 C4       -3.0402    -2.6008    -0.5837 C.2    1 <0>       0.6100
5 O5       -3.8501    -3.3340    -1.1180 O.2    1 <0>      -0.5100
6 N6       -3.4505    -1.4626     0.0102 N.am   1 <0>      -0.6700
7 C7       -4.7921    -1.0756    -0.0713 C.ar   1 <0>       0.1800
8 C8       -5.1239     0.2699    -0.1631 C.ar   1 <0>      -0.1400
9 C9       -6.4496     0.6487    -0.2439 C.ar   1 <0>      -0.0500
10 C10      -7.4461    -0.3100    -0.2329 C.ar   1 <0>      -0.2000
11 C11      -8.8916     0.1070    -0.3207 C.3    1 <0>       0.5100
12 F12      -9.2808     0.1605    -1.6634 F      1 <0>      -0.1800
13 F13      -9.6870    -0.8220     0.3587 F      1 <0>      -0.1800
14 F14      -9.0489     1.3695     0.2612 F      1 <0>      -0.1800
15 C15      -7.1191    -1.6505    -0.1420 C.ar   1 <0>      -0.0500
16 C16      -5.7951    -2.0363    -0.0662 C.ar   1 <0>      -0.1200
17 C17      -0.4801    -2.2173    -0.0022 C.2    1 <0>       0.0300
18 N18       0.5721    -2.9346    -0.2643 N.2    1 <0>      -0.3500
19 O19       0.3006    -3.9405    -0.8728 O.3    1 <0>       0.1000
20 H20      -0.9285    -5.9196    -2.1791 H      1 <0>       0.0900
21 H21      -2.4058    -5.6676    -1.2187 H      1 <0>       0.1000
22 H22      -2.1822    -4.7940    -2.7533 H      1 <0>       0.1000
23 H23      -2.8154    -0.9118     0.4940 H      1 <0>       0.4200
24 H24      -4.3462     1.0192    -0.1711 H      1 <0>       0.1400
25 H25      -6.7083     1.6948    -0.3154 H      1 <0>       0.1400
26 H26      -7.8997    -2.3969    -0.1336 H      1 <0>       0.1400
27 H27      -5.5403    -3.0834     0.0047 H      1 <0>       0.1500
28 H28      -0.5167    -1.2783     0.5300 H      1 <0>       0.2000
@<TRIPOS>BOND
1    1    2 1
2    1   20 1
3    1   21 1
4    1   22 1
5    2   19 1
6    2    3 2
7    3    4 1
8    3   17 1
9    4    5 2
10    4    6 am
11    6    7 1
12    6   23 1
13    7   16 ar
14    7    8 ar
15    8    9 ar
16    8   24 1
17    9   10 ar
18    9   25 1
19   10   11 1
20   10   15 ar
21   11   12 1
22   11   13 1
23   11   14 1
24   15   16 ar
25   15   26 1
26   16   27 1
27   17   18 2
28   17   28 1
29   18   19 1
