@<TRIPOS>MOLECULE
ZINC000003817234
79    83    1     0     0
SMALL
USER_CHARGES
@<TRIPOS>ATOM
1      C1     -2.2252   -1.5479   -0.8210 C.3      1 ZINC000003817234   -0.0900
2      C2     -0.7385   -1.7070   -0.6325 C.2      1 ZINC000003817234    0.1900
3      N3      0.0311   -2.5658   -1.2438 N.2      1 ZINC000003817234   -0.2700
4      N4      1.2443   -2.4226   -0.8419 N.2      1 ZINC000003817234   -0.2700
5      C5      1.3036   -1.4660    0.0441 C.2      1 ZINC000003817234    0.1900
6      C6      2.5405   -0.9859    0.7586 C.3      1 ZINC000003817234   -0.0300
7      C7      3.4582   -2.1761    1.0454 C.3      1 ZINC000003817234   -0.1500
8      C8      3.2775    0.0259   -0.1212 C.3      1 ZINC000003817234   -0.1800
9      N9      0.0479   -0.9811    0.1985 N.pl3    1 ZINC000003817234   -0.4900
10     C10    -0.3752    0.1022    1.0894 C.3      1 ZINC000003817234    0.1400
11     C11     0.7801    1.0902    1.2741 C.3      1 ZINC000003817234   -0.1900
12     C12     1.0660    1.7787   -0.0701 C.3      1 ZINC000003817234    0.0300
13     H13     1.9651    2.3938   -0.0333 H        1 ZINC000003817234    0.1600
14     C14     1.1529    0.6804   -1.1548 C.3      1 ZINC000003817234   -0.2000
15     C15    -0.2965    0.5008   -1.6522 C.3      1 ZINC000003817234   -0.2000
16     C16    -1.1275    1.5069   -0.8230 C.3      1 ZINC000003817234    0.0400
17     H17    -1.9656    1.9141   -1.3885 H        1 ZINC000003817234    0.1500
18     C18    -1.5796    0.8237    0.4778 C.3      1 ZINC000003817234   -0.1800
19     N19    -0.1424    2.5691   -0.4262 N.4      1 ZINC000003817234   -0.4000
20     H20    -0.4831    3.0911    0.3672 H        1 ZINC000003817234    0.4200
21     C21     0.1333    3.4668   -1.5558 C.3      1 ZINC000003817234   -0.0100
22     C22     1.0398    4.6083   -1.0906 C.3      1 ZINC000003817234   -0.1500
23     C23     1.3269    5.5433   -2.2671 C.3      1 ZINC000003817234    0.2000
24     H24     0.3857    5.8840   -2.6986 H        1 ZINC000003817234    0.1100
25     N25     2.0989    4.8253   -3.2844 N.am     1 ZINC000003817234   -0.7400
26     C26     2.0483    5.2202   -4.5720 C.2      1 ZINC000003817234    0.5200
27     O27     1.3637    6.1700   -4.8886 O.2      1 ZINC000003817234   -0.5100
28     C28     2.8424    4.4817   -5.6184 C.3      1 ZINC000003817234   -0.1100
29     C29     2.3929    3.0198   -5.6622 C.3      1 ZINC000003817234   -0.1100
30     C30     3.1991    2.2700   -6.7246 C.3      1 ZINC000003817234   -0.1600
31     C31     2.9665    2.9163   -8.0918 C.3      1 ZINC000003817234    0.2900
32     F32     3.7037    2.2306   -9.0632 F        1 ZINC000003817234   -0.2000
33     F33     1.6056    2.8562   -8.4105 F        1 ZINC000003817234   -0.2000
34     C34     3.4160    4.3781   -8.0480 C.3      1 ZINC000003817234   -0.1600
35     C35     2.6098    5.1279   -6.9856 C.3      1 ZINC000003817234   -0.1000
36     C36     2.1170    6.7318   -1.7830 C.ar     1 ZINC000003817234   -0.1100
37     C37     3.4812    6.6222   -1.5888 C.ar     1 ZINC000003817234   -0.1100
38     C38     4.2059    7.7124   -1.1447 C.ar     1 ZINC000003817234   -0.1200
39     C39     3.5664    8.9123   -0.8953 C.ar     1 ZINC000003817234   -0.1100
40     C40     2.2023    9.0221   -1.0904 C.ar     1 ZINC000003817234   -0.1100
41     C41     1.4783    7.9332   -1.5386 C.ar     1 ZINC000003817234   -0.1000
42     H42    -2.4191   -0.7073   -1.4872 H        1 ZINC000003817234    0.0900
43     H43    -2.6358   -2.4588   -1.2564 H        1 ZINC000003817234    0.1100
44     H44    -2.6960   -1.3624    0.1445 H        1 ZINC000003817234    0.0900
45     H45     2.2564   -0.5115    1.6980 H        1 ZINC000003817234    0.1100
46     H46     3.7423   -2.6505    0.1061 H        1 ZINC000003817234    0.0800
47     H47     4.3528   -1.8288    1.5622 H        1 ZINC000003817234    0.0800
48     H48     2.9332   -2.8969    1.6722 H        1 ZINC000003817234    0.0600
49     H49     2.8648    1.0209    0.0455 H        1 ZINC000003817234    0.0600
50     H50     4.3373    0.0247    0.1333 H        1 ZINC000003817234    0.0800
51     H51     3.1553   -0.2472   -1.1694 H        1 ZINC000003817234    0.0800
52     H52    -0.6546   -0.3130    2.0577 H        1 ZINC000003817234    0.1200
53     H53     0.5047    1.8392    2.0166 H        1 ZINC000003817234    0.1200
54     H54     1.6693    0.5543    1.6062 H        1 ZINC000003817234    0.1500
55     H55     1.7970    1.0047   -1.9721 H        1 ZINC000003817234    0.0900
56     H56     1.5241   -0.2495   -0.7241 H        1 ZINC000003817234    0.1700
57     H57    -0.3651    0.7366   -2.7142 H        1 ZINC000003817234    0.0900
58     H58    -0.6380   -0.5175   -1.4661 H        1 ZINC000003817234    0.1600
59     H59    -2.3554    0.0911    0.2549 H        1 ZINC000003817234    0.1400
60     H60    -1.9694    1.5726    1.1672 H        1 ZINC000003817234    0.1200
61     H61     0.6296    2.9094   -2.3502 H        1 ZINC000003817234    0.1300
62     H62    -0.8042    3.8772   -1.9310 H        1 ZINC000003817234    0.1300
63     H63     0.5435    5.1657   -0.2963 H        1 ZINC000003817234    0.1100
64     H64     1.9773    4.1979   -0.7155 H        1 ZINC000003817234    0.0900
65     H65     2.6464    4.0657   -3.0312 H        1 ZINC000003817234    0.4000
66     H66     3.9027    4.5285   -5.3701 H        1 ZINC000003817234    0.1100
67     H67     2.5587    2.5594   -4.6882 H        1 ZINC000003817234    0.0700
68     H68     1.3326    2.9730   -5.9106 H        1 ZINC000003817234    0.0800
69     H69     4.2594    2.3168   -6.4763 H        1 ZINC000003817234    0.1000
70     H70     2.8789    1.2285   -6.7558 H        1 ZINC000003817234    0.0900
71     H71     4.4763    4.4249   -7.7996 H        1 ZINC000003817234    0.1000
72     H72     3.2503    4.8385   -9.0220 H        1 ZINC000003817234    0.1000
73     H73     1.5495    5.0811   -7.2339 H        1 ZINC000003817234    0.0800
74     H74     2.9300    6.1694   -6.9544 H        1 ZINC000003817234    0.0900
75     H75     3.9808    5.6847   -1.7836 H        1 ZINC000003817234    0.1200
76     H76     5.2716    7.6266   -0.9922 H        1 ZINC000003817234    0.1300
77     H77     4.1325    9.7638   -0.5477 H        1 ZINC000003817234    0.1300
78     H78     1.7027    9.9595   -0.8953 H        1 ZINC000003817234    0.1300
79     H79     0.4126    8.0190   -1.6911 H        1 ZINC000003817234    0.1200
@<TRIPOS>BOND
1     1     2     1
2     1     42    1
3     1     43    1
4     1     44    1
5     2     9     1
6     2     3     2
7     3     4     1
8     4     5     2
9     5     6     1
10    5     9     1
11    6     7     1
12    6     8     1
13    6     45    1
14    7     46    1
15    7     47    1
16    7     48    1
17    8     49    1
18    8     50    1
19    8     51    1
20    9     10    1
21    10    18    1
22    10    11    1
23    10    52    1
24    11    12    1
25    11    53    1
26    11    54    1
27    12    13    1
28    12    19    1
29    12    14    1
30    14    15    1
31    14    55    1
32    14    56    1
33    15    16    1
34    15    57    1
35    15    58    1
36    16    17    1
37    16    18    1
38    16    19    1
39    18    59    1
40    18    60    1
41    19    20    1
42    19    21    1
43    21    22    1
44    21    61    1
45    21    62    1
46    22    23    1
47    22    63    1
48    22    64    1
49    23    24    1
50    23    25    1
51    23    36    1
52    25    26    am
53    25    65    1
54    26    27    2
55    26    28    1
56    28    35    1
57    28    29    1
58    28    66    1
59    29    30    1
60    29    67    1
61    29    68    1
62    30    31    1
63    30    69    1
64    30    70    1
65    31    32    1
66    31    33    1
67    31    34    1
68    34    35    1
69    34    71    1
70    34    72    1
71    35    73    1
72    35    74    1
73    36    41    ar
74    36    37    ar
75    37    38    ar
76    37    75    1
77    38    39    ar
78    38    76    1
79    39    40    ar
80    39    77    1
81    40    41    ar
82    40    78    1
83    41    79    1
@<TRIPOS>SUBSTRUCTURE
1   ZINC000003817234 1     RESIDUE    1   A     ZIN   1
