@<TRIPOS>MOLECULE
ZINC000003977981
62   66    0    0    0
SMALL
NO_CHARGES
@<TRIPOS>ATOM
1 C1             0.2652     1.6807     1.9293 C.3
2 C2             0.1290     0.1788     1.6709 C.3
3 C3            -1.3260    -0.2615     1.8440 C.3
4 O4             0.6024    -0.1490     0.3479 O.3
5 C5             2.0395    -0.1899     0.4647 C.3
6 H6             2.5112     0.7268     0.1108 H
7 C7             2.5457    -1.4462    -0.2954 C.3
8 C8             2.4830    -2.5460     0.7699 C.3
9 H9             1.4518    -2.8602     0.9306 H
10 C10            3.3700    -3.7532     0.5232 C.3
11 H11            4.4081    -3.4341     0.4299 H
12 C12            2.9319    -4.4656    -0.7579 C.3
13 C13            3.8516    -5.6616    -1.0240 C.3
14 H14            4.8654    -5.3107    -1.2167 H
15 F15            3.3830    -6.3815    -2.1282 F
16 C16            3.8416    -6.5473     0.2079 C.2
17 C17            3.5876    -7.8408     0.0675 C.2
18 C18            3.5489    -8.7271     1.2410 C.2
19 O19            3.3547    -9.9215     1.1127 O.2
20 C20            3.7509    -8.1360     2.5747 C.2
21 C21            4.0098    -6.8431     2.6905 C.2
22 C22            4.1247    -5.9084     1.5354 C.3
23 C23            5.5594    -5.3779     1.5028 C.3
24 C24            3.2216    -4.6884     1.7337 C.3
25 F25            1.8894    -5.1092     1.8074 F
26 C26            3.5833    -4.0003     3.0465 C.3
27 H27            3.3648    -4.6754     3.8739 H
28 O28            4.9805    -3.7003     3.0463 O.3
29 C29            2.7920    -2.6971     3.2401 C.3
30 C30            3.0250    -1.8038     2.0206 C.3
31 C31            4.5262    -1.6005     1.8065 C.3
32 C32            2.3019    -0.4485     1.9780 C.3
33 C33            3.1398     0.6521     2.5762 C.2
34 O34            3.8695     1.3067     1.8710 O.2
35 C35            3.0670     0.9358     4.0545 C.3
36 O36            3.8536     2.0897     4.3573 O.3
37 O37            0.9895    -0.5652     2.5600 O.3
38 H38            1.3092     1.9748     1.8211 H
39 H39           -0.3433     2.2297     1.2107 H
40 H40           -0.0732     1.9075     2.9403 H
41 H41           -1.9574     0.2882     1.1460 H
42 H42           -1.4084    -1.3299     1.6446 H
43 H43           -1.6486    -0.0564     2.8648 H
44 H44            1.8871    -1.6819    -1.1313 H
45 H45            3.5698    -1.3014    -0.6396 H
46 H46            1.9056    -4.8152    -0.6457 H
47 H47            2.9882    -3.7713    -1.5963 H
48 H48            3.4073    -8.2473    -0.9167 H
49 H49            3.6875    -8.7562     3.4566 H
50 H50            4.1462    -6.4406     3.6833 H
51 H51            6.2053    -6.1067     1.0132 H
52 H52            5.5870    -4.4387     0.9501 H
53 H53            5.9080    -5.2101     2.5218 H
54 H54            5.2884    -3.2603     3.8504 H
55 H55            1.7248    -2.9142     3.2856 H
56 H56            3.1106    -2.2023     4.1575 H
57 H57            4.9891    -2.5535     1.5505 H
58 H58            4.6846    -0.8900     0.9952 H
59 H59            4.9745    -1.2130     2.7215 H
60 H60            2.0306     1.1176     4.3389 H
61 H61            3.4508     0.0789     4.6082 H
62 H62            3.8529     2.3315     5.2936 H
@<TRIPOS>BOND
1    1    2 1
2    1   38 1
3    1   39 1
4    1   40 1
5    2   37 1
6    2    3 1
7    2    4 1
8    3   41 1
9    3   42 1
10    3   43 1
11    4    5 1
12    5    6 1
13    5   32 1
14    5    7 1
15    7    8 1
16    7   44 1
17    7   45 1
18    8    9 1
19    8   30 1
20    8   10 1
21   10   11 1
22   10   24 1
23   10   12 1
24   12   13 1
25   12   46 1
26   12   47 1
27   13   14 1
28   13   15 1
29   13   16 1
30   16   22 1
31   16   17 2
32   17   18 1
33   17   48 1
34   18   19 2
35   18   20 1
36   20   21 2
37   20   49 1
38   21   22 1
39   21   50 1
40   22   23 1
41   22   24 1
42   23   51 1
43   23   52 1
44   23   53 1
45   24   25 1
46   24   26 1
47   26   27 1
48   26   28 1
49   26   29 1
50   28   54 1
51   29   30 1
52   29   55 1
53   29   56 1
54   30   31 1
55   30   32 1
56   31   57 1
57   31   58 1
58   31   59 1
59   32   33 1
60   32   37 1
61   33   34 2
62   33   35 1
63   35   36 1
64   35   60 1
65   35   61 1
66   36   62 1
