@<TRIPOS>MOLECULE
ZINC000008214651
11   10    0    0    0
SMALL
USER_CHARGES
NO_NAME
@<TRIPOS>ATOM
1 F1        0.0021    -0.0041     0.0020 F      1 <0>      -0.1400
2 C2       -0.0169     1.3948     0.0097 C.3    1 <0>       0.4400
3 F3        1.2956     1.8790    -0.0002 F      1 <0>      -0.1400
4 F4       -0.6935     1.8582    -1.1237 F      1 <0>      -0.1400
5 C5       -0.7330     1.8882     1.2685 C.3    1 <0>       0.2200
6 F6       -0.0564     1.4248     2.4019 F      1 <0>      -0.1200
7 F7       -0.7520     3.2871     1.2762 F      1 <0>      -0.1200
8 C8       -2.1684     1.3586     1.2794 C.3    1 <0>       0.4400
9 F9       -2.1494    -0.0402     1.2717 F      1 <0>      -0.1400
10 F10      -2.8232     1.8098     2.4304 F      1 <0>      -0.1400
11 F11      -2.8451     1.8221     0.1460 F      1 <0>      -0.1400
@<TRIPOS>BOND
1    1    2 1
2    2    3 1
3    2    4 1
4    2    5 1
5    5    6 1
6    5    7 1
7    5    8 1
8    8    9 1
9    8   10 1
10    8   11 1
