@<TRIPOS>MOLECULE
ZINC000000403609
46    47    1     0     0
SMALL
USER_CHARGES
@<TRIPOS>ATOM
1      C1     -0.0187    1.5258    0.0104 C.3      1 ZINC000000403609   -0.1800
2      C2      0.0021   -0.0041    0.0020 C.3      1 ZINC000000403609    0.0500
3      C3      0.7421   -0.5109    1.2415 C.3      1 ZINC000000403609   -0.1800
4      C4     -1.4333   -0.5336    0.0129 C.3      1 ZINC000000403609   -0.1800
5      N5      0.6897   -0.4778   -1.2066 N.4      1 ZINC000000403609   -0.5000
6      H6      0.7033   -1.4867   -1.2121 H        1 ZINC000000403609    0.4300
7      H7      0.2017   -0.1436   -2.0240 H        1 ZINC000000403609    0.4300
8      C8      2.0678    0.0307   -1.2170 C.3      1 ZINC000000403609   -0.0500
9      C9      2.7840   -0.4628   -2.4758 C.3      1 ZINC000000403609    0.0900
10     H10     2.7213   -1.5498   -2.5270 H        1 ZINC000000403609    0.1400
11     O11     2.1628    0.1050   -3.6307 O.3      1 ZINC000000403609   -0.5400
12     C12     4.2531   -0.0383   -2.4263 C.3      1 ZINC000000403609    0.0300
13     O13     4.9483   -0.5972   -3.5427 O.3      1 ZINC000000403609   -0.2600
14     C14     6.2746   -0.3145   -3.6488 C.2      1 ZINC000000403609    0.2800
15     N15     6.8995    0.4285   -2.7736 N.2      1 ZINC000000403609   -0.5100
16     S16     8.5138    0.5186   -3.2868 S.3      1 ZINC000000403609    0.4400
17     N17     8.3099   -0.4458   -4.6673 N.2      1 ZINC000000403609   -0.4600
18     C18     7.0504   -0.8000   -4.6874 C.2      1 ZINC000000403609    0.2700
19     N19     6.5196   -1.6100   -5.6992 N.3      1 ZINC000000403609   -0.4400
20     C20     5.8892   -2.8124   -5.1351 C.3      1 ZINC000000403609    0.0200
21     C21     5.2716   -3.6373   -6.2674 C.3      1 ZINC000000403609    0.0700
22     O22     6.2845   -3.9558   -7.2256 O.3      1 ZINC000000403609   -0.3800
23     C23     6.9190   -2.8079   -7.7957 C.3      1 ZINC000000403609    0.0600
24     C24     7.5533   -1.9747   -6.6789 C.3      1 ZINC000000403609    0.0200
25     H25     1.0039    1.9031    0.0027 H        1 ZINC000000403609    0.0800
26     H26    -0.5459    1.8868   -0.8726 H        1 ZINC000000403609    0.0800
27     H27    -0.5289    1.8773    0.9072 H        1 ZINC000000403609    0.1100
28     H28     0.2319   -0.1594    2.1383 H        1 ZINC000000403609    0.1100
29     H29     0.7568   -1.6008    1.2356 H        1 ZINC000000403609    0.0800
30     H30     1.7647   -0.1336    1.2338 H        1 ZINC000000403609    0.0800
31     H31    -1.9605   -0.1726   -0.8702 H        1 ZINC000000403609    0.0800
32     H32    -1.4185   -1.6235    0.0069 H        1 ZINC000000403609    0.0800
33     H33    -1.9435   -0.1821    0.9097 H        1 ZINC000000403609    0.1100
34     H34     2.0530    1.1205   -1.2110 H        1 ZINC000000403609    0.1400
35     H35     2.5950   -0.3304   -0.3340 H        1 ZINC000000403609    0.1500
36     H36     2.1814    1.0716   -3.6522 H        1 ZINC000000403609    0.3900
37     H37     4.3186    1.0490   -2.4647 H        1 ZINC000000403609    0.0900
38     H38     4.7039   -0.3970   -1.5010 H        1 ZINC000000403609    0.0900
39     H39     6.6409   -3.4091   -4.6183 H        1 ZINC000000403609    0.0600
40     H40     5.1099   -2.5189   -4.4318 H        1 ZINC000000403609    0.1000
41     H41     4.8530   -4.5578   -5.8607 H        1 ZINC000000403609    0.1100
42     H42     4.4829   -3.0600   -6.7498 H        1 ZINC000000403609    0.0700
43     H43     7.6919   -3.1286   -8.4943 H        1 ZINC000000403609    0.1100
44     H44     6.1782   -2.2065   -8.3226 H        1 ZINC000000403609    0.0700
45     H45     7.9887   -1.0696   -7.1025 H        1 ZINC000000403609    0.1000
46     H46     8.3316   -2.5580   -6.1868 H        1 ZINC000000403609    0.0700
@<TRIPOS>BOND
1     1     2     1
2     1     25    1
3     1     26    1
4     1     27    1
5     2     3     1
6     2     4     1
7     2     5     1
8     3     28    1
9     3     29    1
10    3     30    1
11    4     31    1
12    4     32    1
13    4     33    1
14    5     6     1
15    5     7     1
16    5     8     1
17    8     9     1
18    8     34    1
19    8     35    1
20    9     10    1
21    9     11    1
22    9     12    1
23    11    36    1
24    12    13    1
25    12    37    1
26    12    38    1
27    13    14    1
28    14    18    1
29    14    15    2
30    15    16    1
31    16    17    1
32    17    18    2
33    18    19    1
34    19    24    1
35    19    20    1
36    20    21    1
37    20    39    1
38    20    40    1
39    21    22    1
40    21    41    1
41    21    42    1
42    22    23    1
43    23    24    1
44    23    43    1
45    23    44    1
46    24    45    1
47    24    46    1
@<TRIPOS>SUBSTRUCTURE
1   ZINC000000403609 1     RESIDUE    1   A     ZIN   1
