@<TRIPOS>MOLECULE
ZINC000013831141
41   43    0    0    0
SMALL
USER_CHARGES
NO_NAME
@<TRIPOS>ATOM
1 C1       -1.0896     1.3867     0.0506 C.3    1 <0>      -0.1200
2 C2       -0.7883    -0.0898     0.0316 C.ar   1 <0>      -0.0700
3 C3       -0.1772    -0.6534    -1.0752 C.ar   1 <0>      -0.1200
4 C4        0.1019    -2.0032    -1.1005 C.ar   1 <0>      -0.0900
5 C5       -0.2339    -2.8038    -0.0030 C.ar   1 <0>      -0.0800
6 C6        0.0605    -4.2442    -0.0213 C.2    1 <0>       0.0000
7 C7        0.1779    -4.9259     1.1422 C.2    1 <0>      -0.2100
8 C8        0.3179    -6.3326     1.2901 C.2    1 <0>       0.4000
9 O9        0.3557    -7.1546     0.3970 O.2    1 <0>      -0.4500
10 C10       0.4126    -6.6123     2.7960 C.3    1 <0>      -0.1100
11 C11       1.0329    -7.9528     3.1949 C.3    1 <0>      -0.1200
12 C12      -1.0221    -6.3147     3.3332 C.3    1 <0>      -0.1100
13 C13      -1.1745    -4.7834     3.1721 C.3    1 <0>      -0.1300
14 C14       0.1920    -4.3283     2.5555 C.3    1 <0>      -0.0600
15 H15       0.4266    -3.2672     2.6393 H      1 <0>       0.1200
16 C16       1.1713    -5.3213     3.2707 C.3    1 <0>      -0.0600
17 C17       1.1493    -5.1638     4.7924 C.3    1 <0>      -0.1400
18 C18       2.5917    -5.2431     2.7073 C.3    1 <0>      -0.1400
19 C19      -0.8510    -2.2261     1.1121 C.ar   1 <0>      -0.1000
20 C20      -1.1189    -0.8738     1.1235 C.ar   1 <0>      -0.1300
21 H21      -0.2385     1.9259     0.4665 H      1 <0>       0.0700
22 H22      -1.2771     1.7323    -0.9660 H      1 <0>       0.0700
23 H23      -1.9712     1.5697     0.6650 H      1 <0>       0.0700
24 H24       0.0813    -0.0340    -1.9213 H      1 <0>       0.1300
25 H25       0.5781    -2.4416    -1.9650 H      1 <0>       0.1300
26 H26       0.1832    -4.7584    -0.9631 H      1 <0>       0.1300
27 H27       2.0461    -8.0167     2.7981 H      1 <0>       0.0600
28 H28       1.0629    -8.0302     4.2818 H      1 <0>       0.0700
29 H29       0.4318    -8.7665     2.7892 H      1 <0>       0.0600
30 H30      -1.7694    -6.8376     2.7364 H      1 <0>       0.0700
31 H31      -1.1034    -6.5982     4.3825 H      1 <0>       0.0800
32 H32      -1.9971    -4.5506     2.4959 H      1 <0>       0.0700
33 H33      -1.3310    -4.3112     4.1420 H      1 <0>       0.0800
34 H34       0.1371    -5.3317     5.1604 H      1 <0>       0.0700
35 H35       1.8249    -5.8910     5.2428 H      1 <0>       0.0600
36 H36       1.4701    -4.1566     5.0582 H      1 <0>       0.0600
37 H37       2.9893    -4.2401     2.8621 H      1 <0>       0.0600
38 H38       3.2255    -5.9680     3.2180 H      1 <0>       0.0600
39 H39       2.5721    -5.4655     1.6404 H      1 <0>       0.0500
40 H40      -1.1133    -2.8373     1.9631 H      1 <0>       0.1400
41 H41      -1.5948    -0.4263     1.9835 H      1 <0>       0.1300
@<TRIPOS>BOND
1    1    2 1
2    1   21 1
3    1   22 1
4    1   23 1
5    2   20 ar
6    2    3 ar
7    3    4 ar
8    3   24 1
9    4    5 ar
10    4   25 1
11    5    6 1
12    5   19 ar
13    6    7 2
14    6   26 1
15    7   14 1
16    7    8 1
17    8    9 2
18    8   10 1
19   10   16 1
20   10   11 1
21   10   12 1
22   11   27 1
23   11   28 1
24   11   29 1
25   12   13 1
26   12   30 1
27   12   31 1
28   13   14 1
29   13   32 1
30   13   33 1
31   14   15 1
32   14   16 1
33   16   17 1
34   16   18 1
35   17   34 1
36   17   35 1
37   17   36 1
38   18   37 1
39   18   38 1
40   18   39 1
41   19   20 ar
42   19   40 1
43   20   41 1
