@<TRIPOS>MOLECULE
ZINC000022059930
48    51    1     0     0
SMALL
USER_CHARGES
@<TRIPOS>ATOM
1      C1      0.0972    1.4098    0.0422 C.3      1 ZINC000022059930    0.0300
2      O2      0.1002   -0.0191    0.0293 O.3      1 ZINC000022059930   -0.2100
3      N3      0.7354   -0.5836   -1.1033 N.2      1 ZINC000022059930   -0.3500
4      C4      0.8036   -1.8549   -1.2314 C.2      1 ZINC000022059930    0.1300
5      C5      0.2564   -2.9034   -0.2775 C.3      1 ZINC000022059930    0.0300
6      N6      1.0721   -4.1176   -0.5363 N.3      1 ZINC000022059930   -0.4300
7      C7      0.4099   -5.2596   -0.1158 C.ar     1 ZINC000022059930    0.3200
8      N8      0.1336   -6.2080   -0.9949 N.ar     1 ZINC000022059930   -0.5400
9      C9     -0.4986   -7.3207   -0.6414 C.ar     1 ZINC000022059930    0.4100
10     C10    -0.8874   -7.5037    0.6969 C.ar     1 ZINC000022059930   -0.2200
11     C11    -0.6064   -6.5132    1.6463 C.ar     1 ZINC000022059930    0.0000
12     C12     0.0530   -5.3871    1.2305 C.ar     1 ZINC000022059930   -0.0100
13     F13     0.3460   -4.4043    2.1100 F        1 ZINC000022059930   -0.1300
14     C14    -1.5869   -8.7425    1.0709 C.2      1 ZINC000022059930    0.4200
15     O15    -1.9452   -8.9489    2.2174 O.2      1 ZINC000022059930   -0.4300
16     C16    -1.8364   -9.7231   -0.0008 C.2      1 ZINC000022059930   -0.2700
17     C17    -2.5282  -10.9842    0.2864 C.2      1 ZINC000022059930    0.5300
18     O18    -2.7293  -11.7904   -0.6125 O.co2    1 ZINC000022059930   -0.7000
19     O19    -2.9045  -11.2304    1.4249 O.co2    1 ZINC000022059930   -0.6600
20     C20    -1.4066   -9.4318   -1.2807 C.2      1 ZINC000022059930    0.1400
21     N21    -0.7731   -8.2905   -1.5785 N.pl3    1 ZINC000022059930   -0.4500
22     C22    -0.3528   -8.0642   -2.9635 C.3      1 ZINC000022059930    0.0600
23     C23    -0.3585   -9.2670   -3.9090 C.3      1 ZINC000022059930   -0.1800
24     C24    -1.4210   -8.1757   -4.0531 C.3      1 ZINC000022059930   -0.1800
25     C25     1.2489   -4.1173   -2.0123 C.3      1 ZINC000022059930    0.0500
26     C26     1.4422   -2.6283   -2.3712 C.3      1 ZINC000022059930   -0.0700
27     H27     2.5039   -2.3898   -2.4347 H        1 ZINC000022059930    0.1300
28     C28     0.7475   -2.3078   -3.6962 C.3      1 ZINC000022059930    0.0000
29     N29     1.0421   -0.9209   -4.0806 N.4      1 ZINC000022059930   -0.6400
30     H30     0.7057   -0.2947   -3.3644 H        1 ZINC000022059930    0.4400
31     H31     2.0388   -0.8058   -4.1870 H        1 ZINC000022059930    0.4400
32     H32     0.5839   -0.7095   -4.9544 H        1 ZINC000022059930    0.4400
33     H33     1.1241    1.7754    0.0338 H        1 ZINC000022059930    0.0600
34     H34    -0.4274    1.7800   -0.8386 H        1 ZINC000022059930    0.0500
35     H35    -0.4072    1.7641    0.9412 H        1 ZINC000022059930    0.1100
36     H36     0.3790   -2.5773    0.7553 H        1 ZINC000022059930    0.1300
37     H37    -0.7942   -3.0996   -0.4919 H        1 ZINC000022059930    0.0900
38     H38    -0.8976   -6.6361    2.6790 H        1 ZINC000022059930    0.1700
39     H39    -1.5881  -10.1486   -2.0679 H        1 ZINC000022059930    0.1800
40     H40     0.4308   -7.3191   -3.1013 H        1 ZINC000022059930    0.1500
41     H41     0.4215   -9.3136   -4.6690 H        1 ZINC000022059930    0.1100
42     H42    -0.6750  -10.2268   -3.5005 H        1 ZINC000022059930    0.1100
43     H43    -2.4366   -8.4174   -3.7395 H        1 ZINC000022059930    0.1100
44     H44    -1.3401   -7.5042   -4.9079 H        1 ZINC000022059930    0.1100
45     H45     2.1288   -4.6969   -2.2914 H        1 ZINC000022059930    0.1200
46     H46     0.3593   -4.5119   -2.5033 H        1 ZINC000022059930    0.0900
47     H47     1.1109   -2.9842   -4.4699 H        1 ZINC000022059930    0.1500
48     H48    -0.3292   -2.4321   -3.5813 H        1 ZINC000022059930    0.1400
@<TRIPOS>BOND
1     1     2     1
2     1     33    1
3     1     34    1
4     1     35    1
5     2     3     1
6     3     4     2
7     4     26    1
8     4     5     1
9     5     6     1
10    5     36    1
11    5     37    1
12    6     7     1
13    6     25    1
14    7     12    ar
15    7     8     ar
16    8     9     ar
17    9     21    1
18    9     10    ar
19    10    11    ar
20    10    14    1
21    11    12    ar
22    11    38    1
23    12    13    1
24    14    15    2
25    14    16    1
26    16    17    1
27    16    20    2
28    17    18    ar
29    17    19    ar
30    20    21    1
31    20    39    1
32    21    22    1
33    22    24    1
34    22    23    1
35    22    40    1
36    23    24    1
37    23    41    1
38    23    42    1
39    24    43    1
40    24    44    1
41    25    26    1
42    25    45    1
43    25    46    1
44    26    27    1
45    26    28    1
46    28    29    1
47    28    47    1
48    28    48    1
49    29    30    1
50    29    31    1
51    29    32    1
@<TRIPOS>SUBSTRUCTURE
1   ZINC000022059930 1     RESIDUE    1   A     ZIN   1
