@<TRIPOS>MOLECULE
ZINC000002522669
53    55    1     0     0
SMALL
USER_CHARGES
@<TRIPOS>ATOM
1      C1     -4.1579   -4.6152   -0.1905 C.3      1 ZINC000002522669   -0.1400
2      C2     -2.7341   -4.0654   -0.0844 C.3      1 ZINC000002522669   -0.1400
3      C3     -2.7764   -2.5590   -0.0787 C.2      1 ZINC000002522669    0.5100
4      O4     -3.8300   -1.9813   -0.2435 O.2      1 ZINC000002522669   -0.5100
5      N5     -1.6434   -1.8538    0.1095 N.am     1 ZINC000002522669   -0.5500
6      C6     -1.7001   -0.4625    0.2472 C.ar     1 ZINC000002522669    0.1500
7      C7     -0.5285    0.2827    0.2717 C.ar     1 ZINC000002522669   -0.1700
8      C8     -0.5878    1.6558    0.4078 C.ar     1 ZINC000002522669   -0.1000
9      C9     -1.8122    2.2887    0.5201 C.ar     1 ZINC000002522669   -0.1500
10     C10    -2.9806    1.5495    0.4965 C.ar     1 ZINC000002522669   -0.1000
11     C11    -2.9283    0.1767    0.3540 C.ar     1 ZINC000002522669   -0.1600
12     C12    -0.3525   -2.5438    0.1699 C.3      1 ZINC000002522669    0.1300
13     C13     0.5033   -2.1343   -1.0319 C.3      1 ZINC000002522669   -0.1400
14     C14     1.8724   -2.8107   -0.9311 C.3      1 ZINC000002522669    0.0600
15     N15     2.5281   -2.4076    0.3195 N.3      1 ZINC000002522669   -0.5400
16     C16     3.9005   -2.9272    0.3856 C.3      1 ZINC000002522669    0.0600
17     C17     4.4628   -2.7051    1.7911 C.3      1 ZINC000002522669   -0.0800
18     C18     5.8707   -3.2381    1.8589 C.ar     1 ZINC000002522669   -0.0800
19     C19     6.0953   -4.5530    2.2218 C.ar     1 ZINC000002522669   -0.1200
20     C20     7.3867   -5.0419    2.2840 C.ar     1 ZINC000002522669   -0.1200
21     C21     8.4537   -4.2162    1.9829 C.ar     1 ZINC000002522669   -0.1200
22     C22     8.2291   -2.9016    1.6191 C.ar     1 ZINC000002522669   -0.1200
23     C23     6.9374   -2.4138    1.5528 C.ar     1 ZINC000002522669   -0.1100
24     C24     1.7478   -2.8320    1.4889 C.3      1 ZINC000002522669    0.0500
25     C25     0.3750   -2.1563    1.4603 C.3      1 ZINC000002522669   -0.1400
26     H26    -4.1273   -5.7048   -0.1946 H        1 ZINC000002522669    0.0600
27     H27    -4.7446   -4.2714    0.6613 H        1 ZINC000002522669    0.0600
28     H28    -4.6162   -4.2612   -1.1139 H        1 ZINC000002522669    0.0600
29     H29    -2.2758   -4.4195    0.8391 H        1 ZINC000002522669    0.0900
30     H30    -2.1474   -4.4092   -0.9362 H        1 ZINC000002522669    0.1000
31     H31     0.4281   -0.2111    0.1848 H        1 ZINC000002522669    0.1500
32     H32     0.3230    2.2358    0.4270 H        1 ZINC000002522669    0.1200
33     H33    -1.8559    3.3625    0.6268 H        1 ZINC000002522669    0.1200
34     H34    -3.9353    2.0467    0.5851 H        1 ZINC000002522669    0.1200
35     H35    -3.8413   -0.4000    0.3357 H        1 ZINC000002522669    0.1700
36     H36    -0.5145   -3.6216    0.1527 H        1 ZINC000002522669    0.1000
37     H37     0.0104   -2.4460   -1.9528 H        1 ZINC000002522669    0.0700
38     H38     0.6316   -1.0519   -1.0354 H        1 ZINC000002522669    0.0900
39     H39     1.7444   -3.8931   -0.9416 H        1 ZINC000002522669    0.0400
40     H40     2.4893   -2.5099   -1.7779 H        1 ZINC000002522669    0.0800
41     H41     3.8965   -3.9936    0.1602 H        1 ZINC000002522669    0.0400
42     H42     4.5223   -2.4045   -0.3412 H        1 ZINC000002522669    0.0800
43     H43     4.4668   -1.6387    2.0165 H        1 ZINC000002522669    0.0800
44     H44     3.8410   -3.2277    2.5180 H        1 ZINC000002522669    0.0800
45     H45     5.2617   -5.1981    2.4571 H        1 ZINC000002522669    0.1200
46     H46     7.5622   -6.0690    2.5682 H        1 ZINC000002522669    0.1200
47     H47     9.4627   -4.5980    2.0322 H        1 ZINC000002522669    0.1200
48     H48     9.0627   -2.2563    1.3842 H        1 ZINC000002522669    0.1200
49     H49     6.7619   -1.3868    1.2685 H        1 ZINC000002522669    0.1200
50     H50     1.6204   -3.9143    1.4671 H        1 ZINC000002522669    0.0400
51     H51     2.2741   -2.5467    2.3997 H        1 ZINC000002522669    0.0900
52     H52     0.5012   -1.0742    1.4960 H        1 ZINC000002522669    0.1000
53     H53    -0.2097   -2.4836    2.3201 H        1 ZINC000002522669    0.0700
@<TRIPOS>BOND
1     1     2     1
2     1     26    1
3     1     27    1
4     1     28    1
5     2     3     1
6     2     29    1
7     2     30    1
8     3     4     2
9     3     5     am
10    5     6     1
11    5     12    1
12    6     11    ar
13    6     7     ar
14    7     8     ar
15    7     31    1
16    8     9     ar
17    8     32    1
18    9     10    ar
19    9     33    1
20    10    11    ar
21    10    34    1
22    11    35    1
23    12    25    1
24    12    13    1
25    12    36    1
26    13    14    1
27    13    37    1
28    13    38    1
29    14    15    1
30    14    39    1
31    14    40    1
32    15    16    1
33    15    24    1
34    16    17    1
35    16    41    1
36    16    42    1
37    17    18    1
38    17    43    1
39    17    44    1
40    18    23    ar
41    18    19    ar
42    19    20    ar
43    19    45    1
44    20    21    ar
45    20    46    1
46    21    22    ar
47    21    47    1
48    22    23    ar
49    22    48    1
50    23    49    1
51    24    25    1
52    24    50    1
53    24    51    1
54    25    52    1
55    25    53    1
@<TRIPOS>SUBSTRUCTURE
1   ZINC000002522669 1     RESIDUE    1   A     ZIN   1
