@<TRIPOS>MOLECULE
ZINC000003931840
84    88    1     0     0
SMALL
USER_CHARGES
@<TRIPOS>ATOM
1      C1     -0.0157    1.3058    0.0092 C.2      1 ZINC000003931840   -0.1900
2      C2      0.0021   -0.0041    0.0020 C.2      1 ZINC000003931840   -0.1300
3      C3      1.3161   -0.7391   -0.0145 C.3      1 ZINC000003931840   -0.0500
4      C4      2.4464    0.3090    0.0267 C.3      1 ZINC000003931840   -0.1600
5      C5      1.4697   -1.5716   -1.3061 C.3      1 ZINC000003931840   -0.1200
6      C6      0.3687   -2.6233   -1.5133 C.3      1 ZINC000003931840    0.1300
7      H7     -0.5628   -2.3013   -1.0715 H        1 ZINC000003931840    0.1000
8      O8      0.1657   -2.7069   -2.9622 O.3      1 ZINC000003931840   -0.3400
9      C9     -0.7501   -1.8845   -3.4977 C.2      1 ZINC000003931840    0.4700
10     O10    -1.3633   -1.1206   -2.7903 O.2      1 ZINC000003931840   -0.4800
11     C11    -1.0134   -1.9138   -4.9813 C.3      1 ZINC000003931840   -0.1600
12     S12    -2.2938   -0.6964   -5.3924 S.3      1 ZINC000003931840   -0.1100
13     C13    -2.4682   -0.8784   -7.1888 C.3      1 ZINC000003931840   -0.1000
14     C14    -3.0058   -2.2761   -7.5093 C.3      1 ZINC000003931840   -0.1400
15     C15    -4.4377   -2.3958   -6.9633 C.3      1 ZINC000003931840    0.0400
16     H16    -4.8236   -3.4121   -7.0425 H        1 ZINC000003931840    0.1500
17     C17    -4.4316   -1.8848   -5.5042 C.3      1 ZINC000003931840   -0.1600
18     C18    -4.6922   -0.3681   -5.6156 C.3      1 ZINC000003931840   -0.1300
19     C19    -4.8322   -0.1006   -7.1319 C.3      1 ZINC000003931840    0.0400
20     H20    -5.5399    0.7003   -7.3455 H        1 ZINC000003931840    0.1500
21     C21    -3.4387    0.1822   -7.7164 C.3      1 ZINC000003931840   -0.1200
22     N22    -5.2755   -1.4163   -7.7051 N.4      1 ZINC000003931840   -0.4000
23     H23    -5.0883   -1.4533   -8.6959 H        1 ZINC000003931840    0.4200
24     C24    -6.7027   -1.6414   -7.4399 C.3      1 ZINC000003931840   -0.0400
25     C25     0.7480   -4.0147   -1.0106 C.3      1 ZINC000003931840   -0.0300
26     C26     1.4885   -4.5752   -2.2373 C.3      1 ZINC000003931840   -0.1800
27     C27     1.7343   -4.1500    0.0705 C.3      1 ZINC000003931840   -0.1500
28     H28     2.4361   -3.3293   -0.0332 H        1 ZINC000003931840    0.1100
29     C29     2.5649   -5.3712    0.2787 C.2      1 ZINC000003931840    0.3800
30     O30     2.8464   -6.2433   -0.5061 O.2      1 ZINC000003931840   -0.4300
31     C31     3.0177   -5.3259    1.7400 C.3      1 ZINC000003931840   -0.1800
32     C32     2.2018   -4.1946    2.4215 C.3      1 ZINC000003931840   -0.1000
33     C33     1.0306   -3.9966    1.4866 C.3      1 ZINC000003931840   -0.0400
34     C34    -0.0019   -5.1108    1.5860 C.3      1 ZINC000003931840   -0.1100
35     C35    -1.0631   -4.9174    0.5005 C.3      1 ZINC000003931840   -0.1200
36     C36    -0.4139   -4.9828   -0.8823 C.3      1 ZINC000003931840   -0.0800
37     H37    -0.0164   -6.0031   -1.0149 H        1 ZINC000003931840    0.0800
38     C38    -1.4752   -4.7514   -1.9524 C.3      1 ZINC000003931840   -0.1500
39     C39     0.3768   -2.6421    1.3628 C.3      1 ZINC000003931840   -0.0700
40     H40    -0.3400   -2.6333    0.5522 H        1 ZINC000003931840    0.1000
41     C41    -0.3708   -2.3298    2.6753 C.3      1 ZINC000003931840   -0.1300
42     C42     1.4526   -1.6036    1.1710 C.3      1 ZINC000003931840    0.1200
43     H43     2.4276   -2.0898    1.1343 H        1 ZINC000003931840    0.0600
44     O44     1.4552   -0.7549    2.3309 O.3      1 ZINC000003931840   -0.5600
45     H45     0.9122    1.8585    0.0033 H        1 ZINC000003931840    0.1000
46     H46    -0.9582    1.8330    0.0166 H        1 ZINC000003931840    0.1000
47     H47    -0.9258   -0.5567    0.0079 H        1 ZINC000003931840    0.1100
48     H48     2.3580    0.9032    0.9362 H        1 ZINC000003931840    0.0700
49     H49     3.4117   -0.1970    0.0157 H        1 ZINC000003931840    0.0600
50     H50     2.3684    0.9618   -0.8428 H        1 ZINC000003931840    0.0700
51     H51     1.4501   -0.8852   -2.1667 H        1 ZINC000003931840    0.0700
52     H52     2.4481   -2.0582   -1.3112 H        1 ZINC000003931840    0.0800
53     H53    -0.0961   -1.6717   -5.5179 H        1 ZINC000003931840    0.1200
54     H54    -1.3517   -2.9088   -5.2706 H        1 ZINC000003931840    0.1200
55     H55    -1.4954   -0.7475   -7.6626 H        1 ZINC000003931840    0.1200
56     H56    -3.0130   -2.4257   -8.5889 H        1 ZINC000003931840    0.1000
57     H57    -2.3718   -3.0278   -7.0391 H        1 ZINC000003931840    0.1100
58     H58    -5.2247   -2.3648   -4.9309 H        1 ZINC000003931840    0.0900
59     H59    -3.4624   -2.0701   -5.0413 H        1 ZINC000003931840    0.1500
60     H60    -5.6134   -0.1024   -5.0969 H        1 ZINC000003931840    0.1100
61     H61    -3.8510    0.1922   -5.2076 H        1 ZINC000003931840    0.1300
62     H62    -3.0992    1.1657   -7.3913 H        1 ZINC000003931840    0.1200
63     H63    -3.4863    0.1518   -8.8049 H        1 ZINC000003931840    0.1100
64     H64    -7.2874   -0.8426   -7.8962 H        1 ZINC000003931840    0.1200
65     H65    -7.0042   -2.5996   -7.8631 H        1 ZINC000003931840    0.1200
66     H66    -6.8756   -1.6490   -6.3638 H        1 ZINC000003931840    0.1200
67     H67     2.3480   -3.9439   -2.4627 H        1 ZINC000003931840    0.0500
68     H68     1.8281   -5.5889   -2.0248 H        1 ZINC000003931840    0.0800
69     H69     0.8140   -4.5900   -3.0934 H        1 ZINC000003931840    0.0700
70     H70     2.8081   -6.2829    2.2204 H        1 ZINC000003931840    0.1000
71     H71     4.0838   -5.1089    1.7915 H        1 ZINC000003931840    0.1000
72     H72     1.8525   -4.5109    3.4059 H        1 ZINC000003931840    0.0800
73     H73     2.7938   -3.2845    2.5044 H        1 ZINC000003931840    0.0800
74     H74     0.4941   -6.0724    1.4407 H        1 ZINC000003931840    0.0600
75     H75    -0.4685   -5.0972    2.5690 H        1 ZINC000003931840    0.0800
76     H76    -1.8037   -5.7204    0.5810 H        1 ZINC000003931840    0.0700
77     H77    -1.5713   -3.9656    0.6275 H        1 ZINC000003931840    0.0700
78     H78    -1.9278   -3.7703   -1.8092 H        1 ZINC000003931840    0.0500
79     H79    -1.0131   -4.7979   -2.9385 H        1 ZINC000003931840    0.0600
80     H80    -2.2434   -5.5208   -1.8746 H        1 ZINC000003931840    0.0600
81     H81     0.3372   -2.3241    3.5042 H        1 ZINC000003931840    0.0700
82     H82    -0.8478   -1.3528    2.5982 H        1 ZINC000003931840    0.0600
83     H83    -1.1300   -3.0919    2.8512 H        1 ZINC000003931840    0.0500
84     H84     2.1175   -0.0509    2.3016 H        1 ZINC000003931840    0.3700
@<TRIPOS>BOND
1     1     2     2
2     1     45    1
3     1     46    1
4     2     3     1
5     2     47    1
6     3     42    1
7     3     4     1
8     3     5     1
9     4     48    1
10    4     49    1
11    4     50    1
12    5     6     1
13    5     51    1
14    5     52    1
15    6     7     1
16    6     8     1
17    6     25    1
18    8     9     1
19    9     10    2
20    9     11    1
21    11    12    1
22    11    53    1
23    11    54    1
24    12    13    1
25    13    21    1
26    13    14    1
27    13    55    1
28    14    15    1
29    14    56    1
30    14    57    1
31    15    16    1
32    15    22    1
33    15    17    1
34    17    18    1
35    17    58    1
36    17    59    1
37    18    19    1
38    18    60    1
39    18    61    1
40    19    20    1
41    19    21    1
42    19    22    1
43    21    62    1
44    21    63    1
45    22    23    1
46    22    24    1
47    24    64    1
48    24    65    1
49    24    66    1
50    25    36    1
51    25    26    1
52    25    27    1
53    26    67    1
54    26    68    1
55    26    69    1
56    27    28    1
57    27    33    1
58    27    29    1
59    29    30    2
60    29    31    1
61    31    32    1
62    31    70    1
63    31    71    1
64    32    33    1
65    32    72    1
66    32    73    1
67    33    34    1
68    33    39    1
69    34    35    1
70    34    74    1
71    34    75    1
72    35    36    1
73    35    76    1
74    35    77    1
75    36    37    1
76    36    38    1
77    38    78    1
78    38    79    1
79    38    80    1
80    39    40    1
81    39    41    1
82    39    42    1
83    41    81    1
84    41    82    1
85    41    83    1
86    42    43    1
87    42    44    1
88    44    84    1
@<TRIPOS>SUBSTRUCTURE
1   ZINC000003931840 1     RESIDUE    1   A     ZIN   1
