@<TRIPOS>MOLECULE
ZINC000008214635
88    88    1     0     0
SMALL
USER_CHARGES
@<TRIPOS>ATOM
1      C1      1.0870    0.9296    0.7287 C.3      1 ZINC000008214635   -0.1500
2      C2      0.9727   -0.5946    0.6599 C.3      1 ZINC000008214635   -0.1300
3      C3     -0.5034   -0.9932    0.6027 C.3      1 ZINC000008214635   -0.1200
4      C4     -0.6177   -2.5174    0.5339 C.3      1 ZINC000008214635   -0.1200
5      C5     -2.0937   -2.9160    0.4767 C.3      1 ZINC000008214635   -0.1200
6      C6     -2.2081   -4.4402    0.4079 C.3      1 ZINC000008214635   -0.1200
7      C7     -3.6841   -4.8389    0.3506 C.3      1 ZINC000008214635   -0.1200
8      C8     -3.7984   -6.3630    0.2818 C.3      1 ZINC000008214635   -0.1200
9      C9     -5.2745   -6.7617    0.2246 C.3      1 ZINC000008214635   -0.1200
10     C10    -5.3888   -8.2858    0.1558 C.3      1 ZINC000008214635   -0.1200
11     C11    -6.8648   -8.6845    0.0986 C.3      1 ZINC000008214635   -0.1200
12     C12    -6.9792  -10.2087    0.0298 C.3      1 ZINC000008214635    0.0900
13     H13    -6.4416  -10.6516    0.8682 H        1 ZINC000008214635    0.0900
14     C14    -8.4531  -10.6131    0.0982 C.3      1 ZINC000008214635   -0.1400
15     C15    -8.5614  -12.1383    0.1551 C.3      1 ZINC000008214635    0.0800
16     H16    -7.8632  -12.5917    0.8587 H        1 ZINC000008214635    0.1300
17     O17    -8.5879  -12.7852   -1.1617 O.3      1 ZINC000008214635   -0.3400
18     C18    -9.5910  -13.6371   -0.8161 C.2      1 ZINC000008214635    0.4900
19     O19    -9.9834  -14.7106   -1.2079 O.2      1 ZINC000008214635   -0.4200
20     C20   -10.0070  -12.6614    0.2790 C.3      1 ZINC000008214635   -0.1800
21     H21   -10.7657  -11.9431   -0.0317 H        1 ZINC000008214635    0.1300
22     C22   -10.3232  -13.3280    1.6194 C.3      1 ZINC000008214635   -0.1100
23     C23   -11.7732  -13.8162    1.6168 C.3      1 ZINC000008214635   -0.1200
24     C24   -12.0894  -14.4827    2.9571 C.3      1 ZINC000008214635   -0.1200
25     C25   -13.5394  -14.9710    2.9545 C.3      1 ZINC000008214635   -0.1200
26     C26   -13.8556  -15.6375    4.2949 C.3      1 ZINC000008214635   -0.1300
27     C27   -15.3056  -16.1257    4.2922 C.3      1 ZINC000008214635   -0.1500
28     O28    -6.4050  -10.6813   -1.2173 O.3      1 ZINC000008214635   -0.3500
29     C29    -5.8575  -11.9068   -1.2103 C.2      1 ZINC000008214635    0.4600
30     O30    -5.8580  -12.5629   -0.1957 O.2      1 ZINC000008214635   -0.4800
31     C31    -5.2422  -12.4644   -2.4679 C.3      1 ZINC000008214635    0.1600
32     H32    -4.6964  -11.6758   -2.9859 H        1 ZINC000008214635    0.1200
33     C33    -6.3459  -13.0044   -3.3796 C.3      1 ZINC000008214635   -0.1200
34     C34    -5.7287  -13.5004   -4.6888 C.3      1 ZINC000008214635   -0.0900
35     C35    -6.8087  -14.1718   -5.5396 C.3      1 ZINC000008214635   -0.1500
36     C36    -5.1388  -12.3153   -5.4558 C.3      1 ZINC000008214635   -0.1500
37     N37    -4.3208  -13.5494   -2.1212 N.am     1 ZINC000008214635   -0.7300
38     C38    -4.7765  -14.6385   -1.4711 C.2      1 ZINC000008214635    0.4900
39     O39    -5.9492  -14.7204   -1.1730 O.2      1 ZINC000008214635   -0.5100
40     H40     2.1386    1.2136    0.7695 H        1 ZINC000008214635    0.0500
41     H41     0.6261    1.3688   -0.1560 H        1 ZINC000008214635    0.0500
42     H42     0.5778    1.2922    1.6217 H        1 ZINC000008214635    0.0500
43     H43     1.4819   -0.9572   -0.2330 H        1 ZINC000008214635    0.0600
44     H44     1.4336   -1.0338    1.5446 H        1 ZINC000008214635    0.0600
45     H45    -1.0125   -0.6306    1.4957 H        1 ZINC000008214635    0.0600
46     H46    -0.9643   -0.5540   -0.2820 H        1 ZINC000008214635    0.0600
47     H47    -0.1085   -2.8800   -0.3591 H        1 ZINC000008214635    0.0600
48     H48    -0.1567   -2.9566    1.4186 H        1 ZINC000008214635    0.0600
49     H49    -2.6029   -2.5534    1.3696 H        1 ZINC000008214635    0.0600
50     H50    -2.5547   -2.4768   -0.4080 H        1 ZINC000008214635    0.0600
51     H51    -1.6989   -4.8028   -0.4851 H        1 ZINC000008214635    0.0600
52     H52    -1.7471   -4.8794    1.2926 H        1 ZINC000008214635    0.0600
53     H53    -4.1933   -4.4762    1.2436 H        1 ZINC000008214635    0.0600
54     H54    -4.1450   -4.3996   -0.5341 H        1 ZINC000008214635    0.0600
55     H55    -3.2893   -6.7256   -0.6111 H        1 ZINC000008214635    0.0600
56     H56    -3.3375   -6.8023    1.1666 H        1 ZINC000008214635    0.0600
57     H57    -5.7836   -6.3991    1.1176 H        1 ZINC000008214635    0.0600
58     H58    -5.7354   -6.3224   -0.6601 H        1 ZINC000008214635    0.0600
59     H59    -4.8796   -8.6485   -0.7371 H        1 ZINC000008214635    0.0700
60     H60    -4.9279   -8.7251    1.0405 H        1 ZINC000008214635    0.0600
61     H61    -7.3740   -8.3219    0.9915 H        1 ZINC000008214635    0.0800
62     H62    -7.3258   -8.2453   -0.7861 H        1 ZINC000008214635    0.0800
63     H63    -8.9068  -10.1831    0.9912 H        1 ZINC000008214635    0.1100
64     H64    -8.9725  -10.2448   -0.7865 H        1 ZINC000008214635    0.0900
65     H65    -9.6547  -14.1756    1.7704 H        1 ZINC000008214635    0.0700
66     H66   -10.1839  -12.6074    2.4253 H        1 ZINC000008214635    0.0800
67     H67   -12.4417  -12.9686    1.4658 H        1 ZINC000008214635    0.0600
68     H68   -11.9125  -14.5368    0.8109 H        1 ZINC000008214635    0.0700
69     H69   -11.4209  -15.3304    3.1081 H        1 ZINC000008214635    0.0600
70     H70   -11.9501  -13.7622    3.7631 H        1 ZINC000008214635    0.0600
71     H71   -14.2079  -14.1234    2.8036 H        1 ZINC000008214635    0.0600
72     H72   -13.6787  -15.6915    2.1486 H        1 ZINC000008214635    0.0600
73     H73   -13.1871  -16.4851    4.4458 H        1 ZINC000008214635    0.0600
74     H74   -13.7163  -14.9170    5.1008 H        1 ZINC000008214635    0.0600
75     H75   -15.9741  -15.2781    4.1413 H        1 ZINC000008214635    0.0500
76     H76   -15.4449  -16.8463    3.4863 H        1 ZINC000008214635    0.0500
77     H77   -15.5308  -16.6006    5.2471 H        1 ZINC000008214635    0.0500
78     H78    -6.8562  -13.8296   -2.8829 H        1 ZINC000008214635    0.1000
79     H79    -7.0615  -12.2105   -3.5932 H        1 ZINC000008214635    0.0800
80     H80    -4.9399  -14.2199   -4.4690 H        1 ZINC000008214635    0.0700
81     H81    -7.6156  -13.4636   -5.7276 H        1 ZINC000008214635    0.0500
82     H82    -6.3774  -14.4915   -6.4882 H        1 ZINC000008214635    0.0600
83     H83    -7.2025  -15.0387   -5.0090 H        1 ZINC000008214635    0.0500
84     H84    -4.3694  -11.8370   -4.8497 H        1 ZINC000008214635    0.0500
85     H85    -4.6991  -12.6687   -6.3885 H        1 ZINC000008214635    0.0600
86     H86    -5.9276  -11.5959   -5.6756 H        1 ZINC000008214635    0.0600
87     H87    -3.3829  -13.4839   -2.3596 H        1 ZINC000008214635    0.4100
88     H88    -4.0972  -15.4383   -1.2155 H        1 ZINC000008214635    0.1300
@<TRIPOS>BOND
1     1     2     1
2     1     40    1
3     1     41    1
4     1     42    1
5     2     3     1
6     2     43    1
7     2     44    1
8     3     4     1
9     3     45    1
10    3     46    1
11    4     5     1
12    4     47    1
13    4     48    1
14    5     6     1
15    5     49    1
16    5     50    1
17    6     7     1
18    6     51    1
19    6     52    1
20    7     8     1
21    7     53    1
22    7     54    1
23    8     9     1
24    8     55    1
25    8     56    1
26    9     10    1
27    9     57    1
28    9     58    1
29    10    11    1
30    10    59    1
31    10    60    1
32    11    12    1
33    11    61    1
34    11    62    1
35    12    13    1
36    12    14    1
37    12    28    1
38    14    15    1
39    14    63    1
40    14    64    1
41    15    16    1
42    15    20    1
43    15    17    1
44    17    18    1
45    18    19    2
46    18    20    1
47    20    21    1
48    20    22    1
49    22    23    1
50    22    65    1
51    22    66    1
52    23    24    1
53    23    67    1
54    23    68    1
55    24    25    1
56    24    69    1
57    24    70    1
58    25    26    1
59    25    71    1
60    25    72    1
61    26    27    1
62    26    73    1
63    26    74    1
64    27    75    1
65    27    76    1
66    27    77    1
67    28    29    1
68    29    30    2
69    29    31    1
70    31    32    1
71    31    33    1
72    31    37    1
73    33    34    1
74    33    78    1
75    33    79    1
76    34    35    1
77    34    36    1
78    34    80    1
79    35    81    1
80    35    82    1
81    35    83    1
82    36    84    1
83    36    85    1
84    36    86    1
85    37    38    am
86    37    87    1
87    38    39    2
88    38    88    1
@<TRIPOS>SUBSTRUCTURE
1   ZINC000008214635 1     RESIDUE    1   A     ZIN   1
