@<TRIPOS>MOLECULE
ZINC000005844792
54    57    1     0     0
SMALL
USER_CHARGES
@<TRIPOS>ATOM
1      O1     -0.0173    1.4248    0.0099 O.3      1 ZINC000005844792   -0.5400
2      C2      0.0021   -0.0041    0.0020 C.3      1 ZINC000005844792    0.1300
3      H3     -1.0205   -0.3814    0.0098 H        1 ZINC000005844792    0.1100
4      C4      0.7182   -0.4975   -1.2568 C.3      1 ZINC000005844792    0.0300
5      N5      0.0077   -0.0109   -2.4469 N.3      1 ZINC000005844792   -0.6800
6      C6      0.6685   -0.4662   -3.6774 C.3      1 ZINC000005844792    0.0300
7      C7     -0.0985    0.0592   -4.8925 C.3      1 ZINC000005844792    0.1200
8      H8     -0.1129    1.1489   -4.8697 H        1 ZINC000005844792    0.1300
9      O9     -1.4387   -0.4357   -4.8604 O.3      1 ZINC000005844792   -0.5500
10     C10     0.5897   -0.4150   -6.1741 C.3      1 ZINC000005844792    0.0600
11     H11     1.5811    0.0324   -6.2455 H        1 ZINC000005844792    0.0800
12     C12    -0.2496   -0.0084   -7.3920 C.3      1 ZINC000005844792   -0.1500
13     C13     0.5188   -0.3981   -8.6572 C.3      1 ZINC000005844792   -0.0800
14     C14     1.0056   -1.8201   -8.5377 C.ar     1 ZINC000005844792   -0.1300
15     C15     1.3860   -2.4923   -9.6870 C.ar     1 ZINC000005844792   -0.1200
16     C16     1.8416   -3.7965   -9.6142 C.ar     1 ZINC000005844792    0.0700
17     F17     2.2109   -4.4475  -10.7389 F        1 ZINC000005844792   -0.1400
18     C18     1.9182   -4.4339   -8.3877 C.ar     1 ZINC000005844792   -0.1200
19     C19     1.5380   -3.7676   -7.2404 C.ar     1 ZINC000005844792   -0.1200
20     C20     1.0779   -2.4570   -7.3112 C.ar     1 ZINC000005844792    0.1200
21     O21     0.7044   -1.8386   -6.1599 O.3      1 ZINC000005844792   -0.3100
22     C22     0.7421   -0.5109    1.2415 C.3      1 ZINC000005844792    0.0600
23     H23     0.6824   -1.5984    1.2855 H        1 ZINC000005844792    0.0800
24     C24     0.1109    0.0926    2.5028 C.3      1 ZINC000005844792   -0.1500
25     C25     0.8001   -0.5190    3.7250 C.3      1 ZINC000005844792   -0.0800
26     C26     2.2962   -0.4591    3.5472 C.ar     1 ZINC000005844792   -0.1300
27     C27     3.1054   -0.6041    4.6615 C.ar     1 ZINC000005844792   -0.1200
28     C28     4.4821   -0.5587    4.5348 C.ar     1 ZINC000005844792    0.0700
29     F29     5.2667   -0.7003    5.6255 F        1 ZINC000005844792   -0.1400
30     C30     5.0552   -0.3676    3.2892 C.ar     1 ZINC000005844792   -0.1200
31     C31     4.2517   -0.2206    2.1767 C.ar     1 ZINC000005844792   -0.1200
32     C32     2.8671   -0.2641    2.3017 C.ar     1 ZINC000005844792    0.1200
33     O33     2.1105   -0.1062    1.1838 O.3      1 ZINC000005844792   -0.3100
34     H34     0.8606    1.8301    0.0037 H        1 ZINC000005844792    0.3800
35     H35     1.7408   -0.1202   -1.2645 H        1 ZINC000005844792    0.0900
36     H36     0.7330   -1.5874   -1.2628 H        1 ZINC000005844792    0.0400
37     H37    -0.9607   -0.2935   -2.4306 H        1 ZINC000005844792    0.3500
38     H38     1.6907   -0.0887   -3.7019 H        1 ZINC000005844792    0.0800
39     H39     0.6829   -1.5559   -3.7001 H        1 ZINC000005844792    0.0400
40     H40    -1.5022   -1.4005   -4.8781 H        1 ZINC000005844792    0.3800
41     H41    -1.2071   -0.5288   -7.3688 H        1 ZINC000005844792    0.0900
42     H42    -0.4160    1.0688   -7.3804 H        1 ZINC000005844792    0.0900
43     H43    -0.1387   -0.3113   -9.5222 H        1 ZINC000005844792    0.0900
44     H44     1.3723    0.2681   -8.7828 H        1 ZINC000005844792    0.0800
45     H45     1.3271   -1.9961  -10.6445 H        1 ZINC000005844792    0.1400
46     H46     2.2748   -5.4516   -8.3288 H        1 ZINC000005844792    0.1400
47     H47     1.5983   -4.2657   -6.2841 H        1 ZINC000005844792    0.1400
48     H48     0.2527    1.1733    2.5035 H        1 ZINC000005844792    0.0900
49     H49    -0.9540   -0.1388    2.5274 H        1 ZINC000005844792    0.0900
50     H50     0.5183    0.0394    4.6177 H        1 ZINC000005844792    0.0900
51     H51     0.4892   -1.5580    3.8347 H        1 ZINC000005844792    0.0800
52     H52     2.6596   -0.7536    5.6338 H        1 ZINC000005844792    0.1400
53     H53     6.1299   -0.3331    3.1881 H        1 ZINC000005844792    0.1400
54     H54     4.6997   -0.0717    1.2054 H        1 ZINC000005844792    0.1400
@<TRIPOS>BOND
1     1     2     1
2     1     34    1
3     2     3     1
4     2     4     1
5     2     22    1
6     4     5     1
7     4     35    1
8     4     36    1
9     5     6     1
10    5     37    1
11    6     7     1
12    6     38    1
13    6     39    1
14    7     8     1
15    7     9     1
16    7     10    1
17    9     40    1
18    10    11    1
19    10    21    1
20    10    12    1
21    12    13    1
22    12    41    1
23    12    42    1
24    13    14    1
25    13    43    1
26    13    44    1
27    14    20    ar
28    14    15    ar
29    15    16    ar
30    15    45    1
31    16    17    1
32    16    18    ar
33    18    19    ar
34    18    46    1
35    19    20    ar
36    19    47    1
37    20    21    1
38    22    23    1
39    22    33    1
40    22    24    1
41    24    25    1
42    24    48    1
43    24    49    1
44    25    26    1
45    25    50    1
46    25    51    1
47    26    32    ar
48    26    27    ar
49    27    28    ar
50    27    52    1
51    28    29    1
52    28    30    ar
53    30    31    ar
54    30    53    1
55    31    32    ar
56    31    54    1
57    32    33    1
@<TRIPOS>SUBSTRUCTURE
1   ZINC000005844792 1     RESIDUE    1   A     ZIN   1
