@<TRIPOS>MOLECULE
ZINC000008214629
103   103   1     0     0
SMALL
USER_CHARGES
@<TRIPOS>ATOM
1      C1     -0.0187    1.5258    0.0104 C.3      1 ZINC000008214629   -0.1500
2      C2      0.0021   -0.0041    0.0020 C.3      1 ZINC000008214629   -0.1300
3      C3      0.7182   -0.4975   -1.2568 C.3      1 ZINC000008214629   -0.1200
4      C4      0.7390   -2.0273   -1.2652 C.3      1 ZINC000008214629   -0.1200
5      C5      1.4551   -2.5207   -2.5240 C.3      1 ZINC000008214629   -0.1200
6      C6      1.4758   -4.0506   -2.5324 C.3      1 ZINC000008214629   -0.1200
7      C7      2.1920   -4.5440   -3.7912 C.3      1 ZINC000008214629   -0.1200
8      C8      2.2127   -6.0738   -3.7996 C.3      1 ZINC000008214629   -0.1100
9      C9      2.9289   -6.5673   -5.0584 C.3      1 ZINC000008214629   -0.0800
10     C10     2.9493   -8.0741   -5.0667 C.ar     1 ZINC000008214629   -0.1200
11     C11     3.9990   -8.7533   -4.4763 C.ar     1 ZINC000008214629   -0.0800
12     C12     4.0200  -10.1346   -4.4826 C.ar     1 ZINC000008214629   -0.1500
13     C13     2.9866  -10.8402   -5.0815 C.ar     1 ZINC000008214629    0.1300
14     O14     3.0048  -12.1991   -5.0886 O.3      1 ZINC000008214629   -0.3100
15     C15     1.9078  -12.8593   -5.7232 C.3      1 ZINC000008214629    0.0600
16     C16     2.1022  -14.3741   -5.6318 C.3      1 ZINC000008214629    0.0600
17     O17     2.0467  -14.7797   -4.2626 O.3      1 ZINC000008214629   -0.3700
18     C18     2.2180  -16.1846   -4.0652 C.3      1 ZINC000008214629    0.0600
19     C19     2.1407  -16.5027   -2.5706 C.3      1 ZINC000008214629    0.0600
20     O20     0.8276  -16.2105   -2.0887 O.3      1 ZINC000008214629   -0.3700
21     C21     0.6477  -16.4739   -0.6957 C.3      1 ZINC000008214629    0.0600
22     C22    -0.7867  -16.1267   -0.2921 C.3      1 ZINC000008214629    0.0600
23     O23    -1.6954  -17.0021   -0.9628 O.3      1 ZINC000008214629   -0.3700
24     C24    -3.0696  -16.7612   -0.6537 C.3      1 ZINC000008214629    0.0600
25     C25    -3.9466  -17.7508   -1.4234 C.3      1 ZINC000008214629    0.0600
26     O26    -3.6829  -19.0781   -0.9642 O.3      1 ZINC000008214629   -0.3700
27     C27    -4.4544  -20.0849   -1.6224 C.3      1 ZINC000008214629    0.0600
28     C28    -4.0916  -21.4583   -1.0541 C.3      1 ZINC000008214629    0.0600
29     O29    -4.4792  -21.5229    0.3198 O.3      1 ZINC000008214629   -0.3700
30     C30    -4.1833  -22.7712    0.9491 C.3      1 ZINC000008214629    0.0600
31     C31    -4.6390  -22.7270    2.4090 C.3      1 ZINC000008214629    0.0600
32     O32    -6.0619  -22.6056    2.4605 O.3      1 ZINC000008214629   -0.3700
33     C33    -6.5934  -22.5554    3.7860 C.3      1 ZINC000008214629    0.0600
34     C34    -8.1165  -22.4259    3.7202 C.3      1 ZINC000008214629    0.0600
35     O35    -8.6701  -23.6064    3.1353 O.3      1 ZINC000008214629   -0.3700
36     C36   -10.0948  -23.5880    3.0267 C.3      1 ZINC000008214629    0.0600
37     C37   -10.5747  -24.8941    2.3905 C.3      1 ZINC000008214629    0.0600
38     O38   -10.2760  -25.9864    3.2621 O.3      1 ZINC000008214629   -0.3700
39     C39   -10.6853  -27.2599    2.7593 C.3      1 ZINC000008214629    0.0600
40     C40   -10.3174  -28.3490    3.7690 C.3      1 ZINC000008214629    0.0800
41     O41   -11.0675  -28.1580    4.9702 O.3      1 ZINC000008214629   -0.5700
42     C42     1.9343  -10.1563   -5.6728 C.ar     1 ZINC000008214629   -0.2100
43     C43     1.9155   -8.7751   -5.6597 C.ar     1 ZINC000008214629   -0.0800
44     H44     1.0039    1.9031    0.0027 H        1 ZINC000008214629    0.0500
45     H45    -0.5459    1.8868   -0.8726 H        1 ZINC000008214629    0.0500
46     H46    -0.5289    1.8773    0.9072 H        1 ZINC000008214629    0.0500
47     H47     0.5293   -0.3651    0.8851 H        1 ZINC000008214629    0.0600
48     H48    -1.0205   -0.3814    0.0098 H        1 ZINC000008214629    0.0600
49     H49     0.1910   -0.1364   -2.1398 H        1 ZINC000008214629    0.0600
50     H50     1.7408   -0.1202   -1.2645 H        1 ZINC000008214629    0.0600
51     H51     1.2661   -2.3884   -0.3821 H        1 ZINC000008214629    0.0600
52     H52    -0.2836   -2.4046   -1.2575 H        1 ZINC000008214629    0.0600
53     H53     0.9279   -2.1597   -3.4071 H        1 ZINC000008214629    0.0600
54     H54     2.4777   -2.1435   -2.5317 H        1 ZINC000008214629    0.0600
55     H55     2.0030   -4.4117   -1.6494 H        1 ZINC000008214629    0.0600
56     H56     0.4533   -4.4279   -2.5247 H        1 ZINC000008214629    0.0600
57     H57     1.6648   -4.1829   -4.6743 H        1 ZINC000008214629    0.0600
58     H58     3.2146   -4.1667   -3.7990 H        1 ZINC000008214629    0.0600
59     H59     2.7399   -6.4349   -2.9166 H        1 ZINC000008214629    0.0600
60     H60     1.1901   -6.4511   -3.7919 H        1 ZINC000008214629    0.0600
61     H61     2.4017   -6.2062   -5.9415 H        1 ZINC000008214629    0.0700
62     H62     3.9515   -6.1900   -5.0662 H        1 ZINC000008214629    0.0700
63     H63     4.8032   -8.2036   -4.0102 H        1 ZINC000008214629    0.1300
64     H64     4.8405  -10.6647   -4.0219 H        1 ZINC000008214629    0.1300
65     H65     0.9790  -12.5814   -5.2250 H        1 ZINC000008214629    0.0700
66     H66     1.8614  -12.5616   -6.7708 H        1 ZINC000008214629    0.0800
67     H67     1.3132  -14.8762   -6.1917 H        1 ZINC000008214629    0.0700
68     H68     3.0721  -14.6420   -6.0510 H        1 ZINC000008214629    0.0600
69     H69     1.4314  -16.7242   -4.5926 H        1 ZINC000008214629    0.0600
70     H70     3.1902  -16.4899   -4.4519 H        1 ZINC000008214629    0.0700
71     H71     2.3593  -17.5587   -2.4121 H        1 ZINC000008214629    0.0700
72     H72     2.8688  -15.8961   -2.0319 H        1 ZINC000008214629    0.0600
73     H73     0.8353  -17.5294   -0.4983 H        1 ZINC000008214629    0.0600
74     H74     1.3448  -15.8668   -0.1181 H        1 ZINC000008214629    0.0600
75     H75    -0.8990  -16.2429    0.7859 H        1 ZINC000008214629    0.0600
76     H76    -1.0030  -15.0954   -0.5709 H        1 ZINC000008214629    0.0600
77     H77    -3.2293  -16.8906    0.4168 H        1 ZINC000008214629    0.0600
78     H78    -3.3333  -15.7431   -0.9400 H        1 ZINC000008214629    0.0600
79     H79    -4.9968  -17.5109   -1.2575 H        1 ZINC000008214629    0.0600
80     H80    -3.7223  -17.6833   -2.4879 H        1 ZINC000008214629    0.0600
81     H81    -5.5152  -19.8934   -1.4606 H        1 ZINC000008214629    0.0600
82     H82    -4.2406  -20.0658   -2.6911 H        1 ZINC000008214629    0.0600
83     H83    -4.6135  -22.2332   -1.6156 H        1 ZINC000008214629    0.0600
84     H84    -3.0157  -21.6126   -1.1358 H        1 ZINC000008214629    0.0600
85     H85    -4.7071  -23.5734    0.4292 H        1 ZINC000008214629    0.0600
86     H86    -3.1093  -22.9528    0.9091 H        1 ZINC000008214629    0.0600
87     H87    -4.3342  -23.6444    2.9127 H        1 ZINC000008214629    0.0600
88     H88    -4.1831  -21.8708    2.9062 H        1 ZINC000008214629    0.0600
89     H89    -6.3291  -23.4692    4.3182 H        1 ZINC000008214629    0.0600
90     H90    -6.1780  -21.6957    4.3117 H        1 ZINC000008214629    0.0600
91     H91    -8.5142  -22.2984    4.7270 H        1 ZINC000008214629    0.0600
92     H92    -8.3816  -21.5607    3.1125 H        1 ZINC000008214629    0.0600
93     H93   -10.5336  -23.4846    4.0192 H        1 ZINC000008214629    0.0600
94     H94   -10.4010  -22.7469    2.4047 H        1 ZINC000008214629    0.0600
95     H95   -11.6511  -24.8442    2.2262 H        1 ZINC000008214629    0.0600
96     H96   -10.0680  -25.0413    1.4367 H        1 ZINC000008214629    0.0600
97     H97   -11.7640  -27.2591    2.6027 H        1 ZINC000008214629    0.0600
98     H98   -10.1809  -27.4562    1.8132 H        1 ZINC000008214629    0.0600
99     H99   -10.5484  -29.3276    3.3481 H        1 ZINC000008214629    0.0600
100    H100   -9.2522  -28.2920    3.9928 H        1 ZINC000008214629    0.0600
101    H101  -10.8847  -28.8142    5.6566 H        1 ZINC000008214629    0.3800
102    H102    1.1288  -10.7034   -6.1400 H        1 ZINC000008214629    0.1300
103    H103    1.0964   -8.2422   -6.1196 H        1 ZINC000008214629    0.1200
@<TRIPOS>BOND
1     1     2     1
2     1     44    1
3     1     45    1
4     1     46    1
5     2     3     1
6     2     47    1
7     2     48    1
8     3     4     1
9     3     49    1
10    3     50    1
11    4     5     1
12    4     51    1
13    4     52    1
14    5     6     1
15    5     53    1
16    5     54    1
17    6     7     1
18    6     55    1
19    6     56    1
20    7     8     1
21    7     57    1
22    7     58    1
23    8     9     1
24    8     59    1
25    8     60    1
26    9     10    1
27    9     61    1
28    9     62    1
29    10    43    ar
30    10    11    ar
31    11    12    ar
32    11    63    1
33    12    13    ar
34    12    64    1
35    13    14    1
36    13    42    ar
37    14    15    1
38    15    16    1
39    15    65    1
40    15    66    1
41    16    17    1
42    16    67    1
43    16    68    1
44    17    18    1
45    18    19    1
46    18    69    1
47    18    70    1
48    19    20    1
49    19    71    1
50    19    72    1
51    20    21    1
52    21    22    1
53    21    73    1
54    21    74    1
55    22    23    1
56    22    75    1
57    22    76    1
58    23    24    1
59    24    25    1
60    24    77    1
61    24    78    1
62    25    26    1
63    25    79    1
64    25    80    1
65    26    27    1
66    27    28    1
67    27    81    1
68    27    82    1
69    28    29    1
70    28    83    1
71    28    84    1
72    29    30    1
73    30    31    1
74    30    85    1
75    30    86    1
76    31    32    1
77    31    87    1
78    31    88    1
79    32    33    1
80    33    34    1
81    33    89    1
82    33    90    1
83    34    35    1
84    34    91    1
85    34    92    1
86    35    36    1
87    36    37    1
88    36    93    1
89    36    94    1
90    37    38    1
91    37    95    1
92    37    96    1
93    38    39    1
94    39    40    1
95    39    97    1
96    39    98    1
97    40    41    1
98    40    99    1
99    40    100   1
100   41    101   1
101   42    43    ar
102   42    102   1
103   43    103   1
@<TRIPOS>SUBSTRUCTURE
1   ZINC000008214629 1     RESIDUE    1   A     ZIN   1
