@<TRIPOS>MOLECULE
ZINC000003831050
29   28    0    0    0
SMALL
USER_CHARGES
NO_NAME
@<TRIPOS>ATOM
1 C1        0.3398     1.1258     0.3801 C.3    1 <0>      -0.1500
2 C2        0.1859    -0.3651     0.2235 C.2    1 <0>       0.4600
3 O3        1.1649    -1.0673     0.1330 O.2    1 <0>      -0.4900
4 O4       -1.0389    -0.9130     0.1845 O.3    1 <0>      -0.3600
5 C5       -1.1114    -2.3551     0.0318 C.3    1 <0>       0.0600
6 H6       -0.2489    -2.7042    -0.5360 H      1 <0>       0.1100
7 C7       -1.1141    -3.0146     1.4123 C.3    1 <0>      -0.1700
8 C8       -2.3958    -2.7252    -0.7127 C.3    1 <0>       0.0000
9 N9       -2.3207    -2.2311    -2.0941 N.4    1 <0>      -0.2700
10 C10      -1.0973    -2.7383    -2.7297 C.3    1 <0>      -0.0600
11 C11      -3.4930    -2.6987    -2.8458 C.3    1 <0>      -0.0500
12 C12      -2.2967    -0.7623    -2.0882 C.3    1 <0>      -0.0500
13 H13       1.3990     1.3826     0.3907 H      1 <0>       0.1100
14 H14      -0.1483     1.6310    -0.4534 H      1 <0>       0.1000
15 H15      -0.1202     1.4422     1.3163 H      1 <0>       0.1100
16 H16      -1.1685    -4.0972     1.2977 H      1 <0>       0.0900
17 H17      -0.1991    -2.7510     1.9427 H      1 <0>       0.0800
18 H18      -1.9766    -2.6656     1.9801 H      1 <0>       0.0800
19 H19      -2.5120    -3.8089    -0.7203 H      1 <0>       0.1500
20 H20      -3.2504    -2.2717    -0.2106 H      1 <0>       0.1400
21 H21      -1.1151    -3.8281    -2.7341 H      1 <0>       0.1300
22 H22      -1.0416    -2.3717    -3.7547 H      1 <0>       0.1300
23 H23      -0.2274    -2.3913    -2.1720 H      1 <0>       0.1200
24 H24      -4.4008    -2.3224    -2.3742 H      1 <0>       0.1200
25 H25      -3.4373    -2.3321    -3.8708 H      1 <0>       0.1200
26 H26      -3.5108    -3.7885    -2.8502 H      1 <0>       0.1200
27 H27      -1.3435    -0.4161    -1.6888 H      1 <0>       0.1200
28 H28      -2.4198    -0.3928    -3.1063 H      1 <0>       0.1200
29 H29      -3.1091    -0.3882    -1.4652 H      1 <0>       0.1300
@<TRIPOS>BOND
1    1    2 1
2    1   13 1
3    1   14 1
4    1   15 1
5    2    3 2
6    2    4 1
7    4    5 1
8    5    6 1
9    5    7 1
10    5    8 1
11    7   16 1
12    7   17 1
13    7   18 1
14    8    9 1
15    8   19 1
16    8   20 1
17    9   10 1
18    9   11 1
19    9   12 1
20   10   21 1
21   10   22 1
22   10   23 1
23   11   24 1
24   11   25 1
25   11   26 1
26   12   27 1
27   12   28 1
28   12   29 1
