@<TRIPOS>MOLECULE
ZINC000000016154
40   41    0    0    0
SMALL
USER_CHARGES
NO_NAME
@<TRIPOS>ATOM
1 C1       -0.2976     1.5545     1.1220 C.3    1 <0>      -0.1500
2 C2       -0.3099     0.0283     1.2279 C.3    1 <0>       0.0800
3 O3       -1.5048    -0.4917     0.5875 O.3    1 <0>      -0.3700
4 C4       -1.6690    -1.8283     0.5931 C.2    1 <0>       0.6500
5 O5       -0.8365    -2.5406     1.1187 O.2    1 <0>      -0.5600
6 N6       -2.7567    -2.3760     0.0156 N.am   1 <0>      -0.6400
7 C7       -2.8712    -3.7723    -0.0835 C.ar   1 <0>       0.0200
8 C8       -1.7329    -4.5629    -0.0850 C.ar   1 <0>      -0.0300
9 C9       -1.8443    -5.9374    -0.1826 C.ar   1 <0>      -0.2300
10 C10      -3.0963    -6.5299    -0.2793 C.ar   1 <0>       0.2500
11 N11      -3.2056    -7.9211    -0.3775 N.pl3  1 <0>      -0.7400
12 C12      -1.9993    -8.7524    -0.3782 C.3    1 <0>       0.1700
13 C13      -2.3892   -10.2035    -0.4931 C.ar   1 <0>      -0.1200
14 C14      -2.6279   -10.9470     0.6477 C.ar   1 <0>      -0.0700
15 C15      -2.9856   -12.2778     0.5435 C.ar   1 <0>      -0.1600
16 C16      -3.1053   -12.8663    -0.7040 C.ar   1 <0>       0.1100
17 F17      -3.4553   -14.1671    -0.8071 F      1 <0>      -0.1400
18 C18      -2.8664   -12.1206    -1.8459 C.ar   1 <0>      -0.1600
19 C19      -2.5136   -10.7886    -1.7394 C.ar   1 <0>      -0.0700
20 C20      -4.2400    -5.7425    -0.2783 C.ar   1 <0>      -0.2500
21 C21      -4.1307    -4.3645    -0.1747 C.ar   1 <0>       0.2400
22 N22      -5.2811    -3.5684    -0.1734 N.pl3  1 <0>      -0.8800
23 H23       0.5994     1.9449     1.6028 H      1 <0>       0.0800
24 H24      -0.3030     1.8459     0.0717 H      1 <0>       0.0700
25 H25      -1.1804     1.9602     1.6162 H      1 <0>       0.0700
26 H26       0.5730    -0.3774     0.7338 H      1 <0>       0.0700
27 H27      -0.3045    -0.2631     2.2782 H      1 <0>       0.0700
28 H28      -3.4605    -1.8058    -0.3315 H      1 <0>       0.4100
29 H29      -0.7578    -4.1047    -0.0103 H      1 <0>       0.1500
30 H30      -0.9558    -6.5514    -0.1840 H      1 <0>       0.1200
31 H31      -4.0801    -8.3353    -0.4451 H      1 <0>       0.4000
32 H32      -1.3690    -8.4774    -1.2239 H      1 <0>       0.0700
33 H33      -1.4499    -8.5962     0.5502 H      1 <0>       0.0700
34 H34      -2.5345   -10.4877     1.6207 H      1 <0>       0.1400
35 H35      -3.1713   -12.8586     1.4349 H      1 <0>       0.1400
36 H36      -2.9592   -12.5787    -2.8195 H      1 <0>       0.1400
37 H37      -2.3275   -10.2066    -2.6300 H      1 <0>       0.1400
38 H38      -5.2138    -6.2034    -0.3535 H      1 <0>       0.1200
39 H39      -6.1562    -3.9806    -0.2449 H      1 <0>       0.4000
40 H40      -5.2036    -2.6042    -0.1009 H      1 <0>       0.3900
@<TRIPOS>BOND
1    1    2 1
2    1   23 1
3    1   24 1
4    1   25 1
5    2    3 1
6    2   26 1
7    2   27 1
8    3    4 1
9    4    5 2
10    4    6 am
11    6    7 1
12    6   28 1
13    7   21 ar
14    7    8 ar
15    8    9 ar
16    8   29 1
17    9   10 ar
18    9   30 1
19   10   11 1
20   10   20 ar
21   11   12 1
22   11   31 1
23   12   13 1
24   12   32 1
25   12   33 1
26   13   19 ar
27   13   14 ar
28   14   15 ar
29   14   34 1
30   15   16 ar
31   15   35 1
32   16   17 1
33   16   18 ar
34   18   19 ar
35   18   36 1
36   19   37 1
37   20   21 ar
38   20   38 1
39   21   22 1
40   22   39 1
41   22   40 1
