@<TRIPOS>MOLECULE
ZINC000001612996
82    88    1     0     0
SMALL
USER_CHARGES
@<TRIPOS>ATOM
1      C1      0.1511    1.1853   -0.0697 C.3      1 ZINC000001612996   -0.1500
2      C2      0.0410   -0.3397   -0.0142 C.3      1 ZINC000001612996   -0.1000
3      C3     -1.4122   -0.7377    0.0147 C.ar     1 ZINC000001612996    0.0200
4      C4     -2.1002   -0.8802    1.2369 C.ar     1 ZINC000001612996   -0.0800
5      C5     -1.4589   -0.6558    2.4636 C.ar     1 ZINC000001612996   -0.0800
6      C6     -2.1585   -0.8036    3.6283 C.ar     1 ZINC000001612996    0.1100
7      O7     -1.5374   -0.5856    4.8173 O.3      1 ZINC000001612996   -0.3000
8      C8     -1.3069   -1.6620    5.5931 C.2      1 ZINC000001612996    0.6500
9      O9     -1.5516   -2.7763    5.1746 O.2      1 ZINC000001612996   -0.5300
10     N10    -0.8048   -1.5034    6.8338 N.am     1 ZINC000001612996   -0.6000
11     C11    -0.5096   -0.1623    7.3561 C.3      1 ZINC000001612996    0.1100
12     C12    -1.2237    0.0117    8.7001 C.3      1 ZINC000001612996   -0.1600
13     C13    -0.8235   -1.1299    9.6375 C.3      1 ZINC000001612996    0.0200
14     N14    -1.4807   -0.9481   10.9386 N.4      1 ZINC000001612996   -0.3800
15     H15    -2.4817   -0.9513   10.8120 H        1 ZINC000001612996    0.4200
16     C16    -1.0665    0.3348   11.5193 C.3      1 ZINC000001612996   -0.0100
17     C17    -1.8101    0.5666   12.8364 C.3      1 ZINC000001612996   -0.1500
18     C18    -1.4776   -0.5675   13.8104 C.3      1 ZINC000001612996   -0.1400
19     C19    -1.8452   -1.9063   13.1642 C.3      1 ZINC000001612996   -0.1500
20     C20    -1.0989   -2.0455   11.8355 C.3      1 ZINC000001612996   -0.0100
21     C21    -1.2561   -2.4664    9.0301 C.3      1 ZINC000001612996   -0.1600
22     C22    -0.5480   -2.6680    7.6920 C.3      1 ZINC000001612996    0.1300
23     C23    -3.5066   -1.1762    3.6107 C.ar     1 ZINC000001612996   -0.1000
24     C24    -4.1561   -1.4012    2.4381 C.ar     1 ZINC000001612996   -0.0600
25     C25    -3.4680   -1.2579    1.2174 C.ar     1 ZINC000001612996    0.1500
26     N26    -4.0857   -1.4725    0.0558 N.ar     1 ZINC000001612996   -0.4300
27     C27    -3.4513   -1.3405   -1.0988 C.ar     1 ZINC000001612996    0.1900
28     C28    -2.0980   -0.9638   -1.1375 C.ar     1 ZINC000001612996   -0.1500
29     C29    -1.7017   -0.9111   -2.5905 C.3      1 ZINC000001612996    0.1400
30     N30    -2.8972   -1.2750   -3.3625 N.am     1 ZINC000001612996   -0.5000
31     C31    -3.9211   -1.5210   -2.4923 C.2      1 ZINC000001612996    0.1800
32     C32    -5.1602   -1.8825   -2.9762 C.2      1 ZINC000001612996   -0.1400
33     C33    -5.3701   -2.0049   -4.3560 C.2      1 ZINC000001612996    0.0400
34     C34    -4.3415   -1.7659   -5.2125 C.2      1 ZINC000001612996   -0.2200
35     C35    -4.4857   -1.9001   -6.7052 C.3      1 ZINC000001612996    0.1400
36     O36    -5.8867   -1.9279   -7.0840 O.3      1 ZINC000001612996   -0.3600
37     C37    -6.6648   -2.7264   -6.3180 C.2      1 ZINC000001612996    0.4700
38     O38    -7.2670   -3.6632   -6.7866 O.2      1 ZINC000001612996   -0.4200
39     C39    -6.7433   -2.3891   -4.8470 C.3      1 ZINC000001612996    0.1400
40     O40    -7.2097   -3.5273   -4.1198 O.3      1 ZINC000001612996   -0.5200
41     C41    -7.7064   -1.2182   -4.6411 C.3      1 ZINC000001612996   -0.1400
42     C42    -9.0965   -1.6059   -5.1493 C.3      1 ZINC000001612996   -0.1600
43     C43    -3.0891   -1.3803   -4.6914 C.2      1 ZINC000001612996    0.5500
44     O44    -2.1658   -1.1449   -5.4540 O.2      1 ZINC000001612996   -0.5300
45     H45     1.2022    1.4731   -0.0907 H        1 ZINC000001612996    0.0700
46     H46    -0.3442    1.5529   -0.9684 H        1 ZINC000001612996    0.0600
47     H47    -0.3262    1.6163    0.8103 H        1 ZINC000001612996    0.0600
48     H48     0.5183   -0.7708   -0.8942 H        1 ZINC000001612996    0.0900
49     H49     0.5363   -0.7073    0.8845 H        1 ZINC000001612996    0.0900
50     H50    -0.4182   -0.3682    2.4878 H        1 ZINC000001612996    0.1500
51     H51     0.5658   -0.0535    7.4969 H        1 ZINC000001612996    0.0900
52     H52    -0.8660    0.5904    6.6528 H        1 ZINC000001612996    0.1100
53     H53    -0.9362    0.9648    9.1442 H        1 ZINC000001612996    0.1100
54     H54    -2.3023   -0.0068    8.5441 H        1 ZINC000001612996    0.0900
55     H55     0.2580   -1.1261    9.7732 H        1 ZINC000001612996    0.1400
56     H56     0.0071    0.3186   11.7066 H        1 ZINC000001612996    0.1300
57     H57    -1.3009    1.1405   10.8236 H        1 ZINC000001612996    0.1300
58     H58    -1.4999    1.5187   13.2668 H        1 ZINC000001612996    0.1100
59     H59    -2.8839    0.5832   12.6501 H        1 ZINC000001612996    0.0900
60     H60    -0.4115   -0.5526   14.0369 H        1 ZINC000001612996    0.0800
61     H61    -2.0486   -0.4375   14.7297 H        1 ZINC000001612996    0.0900
62     H62    -1.5601   -2.7217   13.8290 H        1 ZINC000001612996    0.1100
63     H63    -2.9198   -1.9410   12.9847 H        1 ZINC000001612996    0.0900
64     H64    -1.3576   -2.9976   11.3720 H        1 ZINC000001612996    0.1300
65     H65    -0.0247   -2.0109   12.0172 H        1 ZINC000001612996    0.1300
66     H66    -0.9917   -3.2771    9.7089 H        1 ZINC000001612996    0.1100
67     H67    -2.3344   -2.4616    8.8709 H        1 ZINC000001612996    0.0900
68     H68    -0.9271   -3.5693    7.2102 H        1 ZINC000001612996    0.1200
69     H69     0.5252   -2.7633    7.8572 H        1 ZINC000001612996    0.0900
70     H70    -4.0396   -1.2872    4.5434 H        1 ZINC000001612996    0.1400
71     H71    -5.1970   -1.6892    2.4423 H        1 ZINC000001612996    0.1500
72     H72    -1.3793    0.0964   -2.8536 H        1 ZINC000001612996    0.1200
73     H73    -0.8999   -1.6233   -2.7853 H        1 ZINC000001612996    0.1200
74     H74    -5.9718   -2.0724   -2.2894 H        1 ZINC000001612996    0.1600
75     H75    -3.9991   -1.0540   -7.1906 H        1 ZINC000001612996    0.1400
76     H76    -4.0072   -2.8238   -7.0306 H        1 ZINC000001612996    0.1000
77     H77    -8.0866   -3.8336   -4.3887 H        1 ZINC000001612996    0.4000
78     H78    -7.7621   -0.9759   -3.5799 H        1 ZINC000001612996    0.1000
79     H79    -7.3466   -0.3503   -5.1936 H        1 ZINC000001612996    0.0900
80     H80    -9.0408   -1.8483   -6.2106 H        1 ZINC000001612996    0.0600
81     H81    -9.4563   -2.4739   -4.5968 H        1 ZINC000001612996    0.0600
82     H82    -9.7827   -0.7718   -5.0027 H        1 ZINC000001612996    0.0800
@<TRIPOS>BOND
1     1     2     1
2     1     45    1
3     1     46    1
4     1     47    1
5     2     3     1
6     2     48    1
7     2     49    1
8     3     28    ar
9     3     4     ar
10    4     25    ar
11    4     5     ar
12    5     6     ar
13    5     50    1
14    6     7     1
15    6     23    ar
16    7     8     1
17    8     9     2
18    8     10    am
19    10    22    1
20    10    11    1
21    11    12    1
22    11    51    1
23    11    52    1
24    12    13    1
25    12    53    1
26    12    54    1
27    13    14    1
28    13    21    1
29    13    55    1
30    14    15    1
31    14    20    1
32    14    16    1
33    16    17    1
34    16    56    1
35    16    57    1
36    17    18    1
37    17    58    1
38    17    59    1
39    18    19    1
40    18    60    1
41    18    61    1
42    19    20    1
43    19    62    1
44    19    63    1
45    20    64    1
46    20    65    1
47    21    22    1
48    21    66    1
49    21    67    1
50    22    68    1
51    22    69    1
52    23    24    ar
53    23    70    1
54    24    25    ar
55    24    71    1
56    25    26    ar
57    26    27    ar
58    27    31    1
59    27    28    ar
60    28    29    1
61    29    30    1
62    29    72    1
63    29    73    1
64    30    43    am
65    30    31    1
66    31    32    2
67    32    33    1
68    32    74    1
69    33    39    1
70    33    34    2
71    34    35    1
72    34    43    1
73    35    36    1
74    35    75    1
75    35    76    1
76    36    37    1
77    37    38    2
78    37    39    1
79    39    40    1
80    39    41    1
81    40    77    1
82    41    42    1
83    41    78    1
84    41    79    1
85    42    80    1
86    42    81    1
87    42    82    1
88    43    44    2
@<TRIPOS>SUBSTRUCTURE
1   ZINC000001612996 1     RESIDUE    1   A     ZIN   1
