@<TRIPOS>MOLECULE
ZINC000003875483
41    45    1     0     0
SMALL
USER_CHARGES
@<TRIPOS>ATOM
1      C1     -0.0178    1.4648    0.0101 C.3      1 ZINC000003875483    0.0200
2      N2      0.0021   -0.0041    0.0020 N.3      1 ZINC000003875483   -0.5300
3      C3      0.4565   -0.5166   -1.2955 C.3      1 ZINC000003875483    0.0600
4      C4      0.3567   -2.0468   -1.3147 C.3      1 ZINC000003875483   -0.1000
5      C5      1.1860   -2.5993   -0.1575 C.3      1 ZINC000003875483   -0.0200
6      C6      2.6105   -2.1170   -0.2767 C.ar     1 ZINC000003875483   -0.1700
7      C7      3.3458   -3.1220   -0.8879 C.ar     1 ZINC000003875483    0.0900
8      O8      2.5698   -4.2066   -1.0999 O.3      1 ZINC000003875483   -0.2700
9      C9      1.3778   -4.1064   -0.2643 C.3      1 ZINC000003875483    0.0600
10     H10     0.5188   -4.5830   -0.7366 H        1 ZINC000003875483    0.1500
11     C11     1.6998   -4.7487    1.0525 C.2      1 ZINC000003875483    0.3500
12     O12     2.3088   -5.7915    1.0506 O.2      1 ZINC000003875483   -0.4300
13     C13     1.3015   -4.1563    2.3708 C.3      1 ZINC000003875483   -0.1600
14     C14     1.4988   -2.6394    2.3423 C.3      1 ZINC000003875483   -0.1400
15     C15     0.6702   -2.0502    1.1627 C.3      1 ZINC000003875483    0.1700
16     O16    -0.7057   -2.4019    1.3216 O.3      1 ZINC000003875483   -0.5300
17     C17     0.8060   -0.5255    1.1143 C.3      1 ZINC000003875483    0.0700
18     H18     0.3935   -0.1237    2.0398 H        1 ZINC000003875483    0.0900
19     C19     2.2378   -0.0320    0.9888 C.3      1 ZINC000003875483   -0.1100
20     C20     3.1261   -0.9437    0.2256 C.ar     1 ZINC000003875483   -0.0300
21     C21     4.4610   -0.7032   -0.0472 C.ar     1 ZINC000003875483   -0.1300
22     C22     5.2216   -1.6556   -0.7058 C.ar     1 ZINC000003875483   -0.1000
23     C23     4.7019   -2.8819   -1.1386 C.ar     1 ZINC000003875483    0.0900
24     O24     5.4852   -3.8088   -1.7522 O.3      1 ZINC000003875483   -0.4800
25     H25     0.9796    1.8429   -0.2142 H        1 ZINC000003875483    0.0300
26     H26    -0.7199    1.8228   -0.7429 H        1 ZINC000003875483    0.0700
27     H27    -0.3279    1.8185    0.9934 H        1 ZINC000003875483    0.0700
28     H28    -0.1682   -0.1030   -2.0872 H        1 ZINC000003875483    0.0800
29     H29     1.4921   -0.2190   -1.4599 H        1 ZINC000003875483    0.0400
30     H30    -0.6842   -2.3477   -1.1960 H        1 ZINC000003875483    0.0900
31     H31     0.7460   -2.4275   -2.2589 H        1 ZINC000003875483    0.0800
32     H32     0.2531   -4.3813    2.5666 H        1 ZINC000003875483    0.1100
33     H33     1.9163   -4.5865    3.1614 H        1 ZINC000003875483    0.1000
34     H34     1.1550   -2.2083    3.2825 H        1 ZINC000003875483    0.0900
35     H35     2.5546   -2.4107    2.1970 H        1 ZINC000003875483    0.0800
36     H36    -1.1034   -2.0745    2.1400 H        1 ZINC000003875483    0.3800
37     H37     2.2289    0.9485    0.5128 H        1 ZINC000003875483    0.0900
38     H38     2.6604    0.0718    1.9882 H        1 ZINC000003875483    0.0900
39     H39     4.9118    0.2308    0.2542 H        1 ZINC000003875483    0.1300
40     H40     6.2557   -1.4289   -0.9195 H        1 ZINC000003875483    0.1400
41     H41     5.9029   -4.4349   -1.1450 H        1 ZINC000003875483    0.3900
@<TRIPOS>BOND
1     1     2     1
2     1     25    1
3     1     26    1
4     1     27    1
5     2     17    1
6     2     3     1
7     3     4     1
8     3     28    1
9     3     29    1
10    4     5     1
11    4     30    1
12    4     31    1
13    5     9     1
14    5     15    1
15    5     6     1
16    6     20    ar
17    6     7     ar
18    7     23    ar
19    7     8     1
20    8     9     1
21    9     10    1
22    9     11    1
23    11    12    2
24    11    13    1
25    13    14    1
26    13    32    1
27    13    33    1
28    14    15    1
29    14    34    1
30    14    35    1
31    15    16    1
32    15    17    1
33    16    36    1
34    17    18    1
35    17    19    1
36    19    20    1
37    19    37    1
38    19    38    1
39    20    21    ar
40    21    22    ar
41    21    39    1
42    22    23    ar
43    22    40    1
44    23    24    1
45    24    41    1
@<TRIPOS>SUBSTRUCTURE
1   ZINC000003875483 1     RESIDUE    1   A     ZIN   1
