@<TRIPOS>MOLECULE
ZINC000040430143
55    59    1     0     0
SMALL
USER_CHARGES
@<TRIPOS>ATOM
1      O1     -0.3564    0.3847    0.8318 O.2      1 ZINC000040430143   -0.5200
2      C2     -0.0144    1.2115    0.0087 C.2      1 ZINC000040430143    0.5700
3      C3      1.2751    1.9153    0.1607 C.ar     1 ZINC000040430143   -0.1600
4      C4      1.3181    3.3108    0.1524 C.ar     1 ZINC000040430143   -0.0500
5      C5      2.5253    3.9618    0.2952 C.ar     1 ZINC000040430143   -0.0900
6      C6      2.5719    5.4680    0.2869 C.3      1 ZINC000040430143   -0.0200
7      C7      2.4135    5.9833    1.6941 C.2      1 ZINC000040430143    0.1400
8      N8      2.2719    5.1480    2.6798 N.2      1 ZINC000040430143   -0.2200
9      N9      2.1216    5.5629    4.0033 N.am     1 ZINC000040430143   -0.5300
10     C10     2.1144    6.8691    4.3417 C.2      1 ZINC000040430143    0.5300
11     O11     1.9821    7.2081    5.5041 O.2      1 ZINC000040430143   -0.5200
12     C12     2.2694    7.8740    3.2824 C.ar     1 ZINC000040430143   -0.1300
13     C13     2.2716    9.2405    3.5565 C.ar     1 ZINC000040430143   -0.0500
14     C14     2.4206   10.1402    2.5237 C.ar     1 ZINC000040430143   -0.1100
15     C15     2.5679    9.6994    1.2151 C.ar     1 ZINC000040430143   -0.0900
16     C16     2.5687    8.3541    0.9207 C.ar     1 ZINC000040430143   -0.1000
17     C17     2.4253    7.4236    1.9513 C.ar     1 ZINC000040430143   -0.0600
18     C18     3.6943    3.2363    0.4467 C.ar     1 ZINC000040430143   -0.0500
19     C19     3.6623    1.8542    0.4557 C.ar     1 ZINC000040430143   -0.1500
20     C20     2.4588    1.1872    0.3193 C.ar     1 ZINC000040430143    0.1500
21     F21     2.4276   -0.1634    0.3281 F        1 ZINC000040430143   -0.1200
22     N22    -0.8095    1.4818   -1.0454 N.am     1 ZINC000040430143   -0.6100
23     C23    -0.3525    2.3783   -2.1165 C.3      1 ZINC000040430143    0.0900
24     C24    -0.4612    1.6377   -3.4552 C.3      1 ZINC000040430143    0.1000
25     N25    -1.8005    1.0409   -3.5543 N.am     1 ZINC000040430143   -0.6100
26     C26    -2.5953    1.3105   -4.6089 C.2      1 ZINC000040430143    0.5500
27     O27    -2.2071    2.0516   -5.4870 O.2      1 ZINC000040430143   -0.5400
28     C28    -3.9663    0.6912   -4.6970 C.3      1 ZINC000040430143   -0.2000
29     C29    -5.1723    1.6210   -4.5493 C.3      1 ZINC000040430143   -0.1500
30     C30    -4.8203    1.0364   -5.9186 C.3      1 ZINC000040430143   -0.1500
31     C31    -2.2575    0.1444   -2.4832 C.3      1 ZINC000040430143    0.0900
32     C32    -2.1467    0.8806   -1.1473 C.3      1 ZINC000040430143    0.1000
33     H33     0.4075    3.8793    0.0340 H        1 ZINC000040430143    0.1400
34     H34     3.5289    5.7997   -0.1159 H        1 ZINC000040430143    0.1100
35     H35     1.7632    5.8531   -0.3342 H        1 ZINC000040430143    0.1100
36     H36     2.0192    4.8945    4.6987 H        1 ZINC000040430143    0.4400
37     H37     2.1569    9.5917    4.5713 H        1 ZINC000040430143    0.1400
38     H38     2.4226   11.1995    2.7341 H        1 ZINC000040430143    0.1400
39     H39     2.6827   10.4201    0.4189 H        1 ZINC000040430143    0.1400
40     H40     2.6839    8.0211   -0.1002 H        1 ZINC000040430143    0.1400
41     H41     4.6364    3.7526    0.5580 H        1 ZINC000040430143    0.1400
42     H42     4.5784    1.2946    0.5739 H        1 ZINC000040430143    0.1400
43     H43    -0.9793    3.2698   -2.1398 H        1 ZINC000040430143    0.0800
44     H44     0.6848    2.6620   -1.9385 H        1 ZINC000040430143    0.1000
45     H45    -0.3121    2.3403   -4.2751 H        1 ZINC000040430143    0.1100
46     H46     0.2935    0.8526   -3.5011 H        1 ZINC000040430143    0.0700
47     H47    -4.0542   -0.3161   -4.2899 H        1 ZINC000040430143    0.1300
48     H48    -6.0539    1.2256   -4.0448 H        1 ZINC000040430143    0.1100
49     H49    -4.9741    2.6807   -4.3884 H        1 ZINC000040430143    0.1000
50     H50    -4.3904    1.7115   -6.6587 H        1 ZINC000040430143    0.1100
51     H51    -5.4702    0.2563   -6.3150 H        1 ZINC000040430143    0.1100
52     H52    -3.2948   -0.1392   -2.6612 H        1 ZINC000040430143    0.1000
53     H53    -1.6307   -0.7471   -2.4600 H        1 ZINC000040430143    0.0800
54     H54    -2.2959    0.1770   -0.3284 H        1 ZINC000040430143    0.1100
55     H55    -2.9001    1.6668   -1.0993 H        1 ZINC000040430143    0.0800
@<TRIPOS>BOND
1     1     2     2
2     2     3     1
3     2     22    am
4     3     20    ar
5     3     4     ar
6     4     5     ar
7     4     33    1
8     5     6     1
9     5     18    ar
10    6     7     1
11    6     34    1
12    6     35    1
13    7     17    1
14    7     8     2
15    8     9     1
16    9     10    am
17    9     36    1
18    10    11    2
19    10    12    1
20    12    17    ar
21    12    13    ar
22    13    14    ar
23    13    37    1
24    14    15    ar
25    14    38    1
26    15    16    ar
27    15    39    1
28    16    17    ar
29    16    40    1
30    18    19    ar
31    18    41    1
32    19    20    ar
33    19    42    1
34    20    21    1
35    22    32    1
36    22    23    1
37    23    24    1
38    23    43    1
39    23    44    1
40    24    25    1
41    24    45    1
42    24    46    1
43    25    26    am
44    25    31    1
45    26    27    2
46    26    28    1
47    28    30    1
48    28    29    1
49    28    47    1
50    29    30    1
51    29    48    1
52    29    49    1
53    30    50    1
54    30    51    1
55    31    32    1
56    31    52    1
57    31    53    1
58    32    54    1
59    32    55    1
@<TRIPOS>SUBSTRUCTURE
1   ZINC000040430143 1     RESIDUE    1   A     ZIN   1
