@<TRIPOS>MOLECULE
ZINC000003798064
31   33    0    0    0
SMALL
USER_CHARGES
NO_NAME
@<TRIPOS>ATOM
1 N1       -0.0167     1.3796     0.0096 N.pl3  1 <0>      -0.8100
2 C2        0.0021    -0.0041     0.0020 C.ar   1 <0>       0.5300
3 C3       -1.1955    -0.7391     0.0036 C.ar   1 <0>      -0.1000
4 N4       -2.5114    -0.4160     0.0118 N.2    1 <0>      -0.4600
5 C5       -3.2246    -1.5044     0.0090 C.2    1 <0>       0.2700
6 N6       -2.4081    -2.5962    -0.0012 N.pl3  1 <0>      -0.4700
7 C7       -2.8348    -3.9977    -0.0072 C.3    1 <0>       0.3100
8 H8       -2.1542    -4.5982    -0.6108 H      1 <0>       0.1200
9 C9       -2.9004    -4.5461     1.4355 C.3    1 <0>      -0.2000
10 C10      -4.1332    -5.4773     1.4274 C.3    1 <0>       0.0800
11 H11      -4.8832    -5.1243     2.1352 H      1 <0>       0.0800
12 O12      -3.7492    -6.8191     1.7345 O.3    1 <0>      -0.5500
13 C13      -4.6666    -5.3815    -0.0192 C.3    1 <0>       0.0900
14 H14      -4.2685    -6.1954    -0.6251 H      1 <0>       0.1000
15 C15      -6.1963    -5.4127    -0.0260 C.3    1 <0>       0.0900
16 O16      -6.6662    -5.4405    -1.3753 O.3    1 <0>      -0.5700
17 O17      -4.1843    -4.1102    -0.5091 O.3    1 <0>      -0.3500
18 C18      -1.1136    -2.1417    -0.0049 C.ar   1 <0>       0.3200
19 N19       0.0834    -2.7191    -0.0141 N.ar   1 <0>      -0.5400
20 C20       1.1807    -1.9895    -0.0152 C.ar   1 <0>       0.4300
21 Cl21      2.7192    -2.7936    -0.0279 Cl     1 <0>       0.0400
22 N22       1.1532    -0.6682    -0.0125 N.ar   1 <0>      -0.5800
23 H23       0.8167     1.8760     0.0043 H      1 <0>       0.4100
24 H24      -0.8632     1.8531     0.0162 H      1 <0>       0.4200
25 H25      -4.3041    -1.5379     0.0144 H      1 <0>       0.2300
26 H26      -1.9976    -5.1096     1.6713 H      1 <0>       0.1100
27 H27      -3.0409    -3.7326     2.1472 H      1 <0>       0.0900
28 H28      -3.3528    -6.9241     2.6102 H      1 <0>       0.3900
29 H29      -6.5439    -6.3029     0.4982 H      1 <0>       0.0700
30 H30      -6.5801    -4.5235     0.4741 H      1 <0>       0.0600
31 H31      -7.6296    -5.4612    -1.4559 H      1 <0>       0.3900
@<TRIPOS>BOND
1    1    2 1
2    1   23 1
3    1   24 1
4    2   22 ar
5    2    3 ar
6    3   18 ar
7    3    4 1
8    4    5 2
9    5    6 1
10    5   25 1
11    6    7 1
12    6   18 1
13    7    8 1
14    7   17 1
15    7    9 1
16    9   10 1
17    9   26 1
18    9   27 1
19   10   11 1
20   10   12 1
21   10   13 1
22   12   28 1
23   13   14 1
24   13   15 1
25   13   17 1
26   15   16 1
27   15   29 1
28   15   30 1
29   16   31 1
30   18   19 ar
31   19   20 ar
32   20   21 1
33   20   22 ar
