@<TRIPOS>MOLECULE
ZINC000003876136
57   60    0    0    0
SMALL
USER_CHARGES
NO_NAME
@<TRIPOS>ATOM
1 C1        1.0914     1.1788     1.1335 C.3    1 <0>      -0.1600
2 C2        1.0380    -0.3422     0.9765 C.3    1 <0>      -0.1100
3 H3        0.0512    -0.7122     1.2547 H      1 <0>       0.0900
4 C4        1.3621    -0.7384    -0.4898 C.3    1 <0>      -0.1100
5 C5        2.1678    -2.0318    -0.3254 C.3    1 <0>      -0.0800
6 H6        1.5064    -2.8614    -0.0754 H      1 <0>       0.0900
7 C7        3.0632    -2.4049    -1.4928 C.3    1 <0>      -0.1000
8 H8        3.7655    -1.5953    -1.6912 H      1 <0>       0.1200
9 C9        2.2123    -2.6667    -2.7371 C.3    1 <0>      -0.1200
10 C10       3.1219    -3.0043    -3.9226 C.3    1 <0>      -0.1000
11 C11       4.0052    -4.1712    -3.5226 C.2    1 <0>      -0.0300
12 C12       4.0669    -5.2318    -4.3156 C.2    1 <0>      -0.2200
13 C13       4.8968    -6.3906    -3.9515 C.2    1 <0>       0.4100
14 O14       4.9871    -7.3495    -4.6951 O.2    1 <0>      -0.4600
15 C15       5.6162    -6.3636    -2.6667 C.2    1 <0>      -0.2100
16 C16       5.5450    -5.2914    -1.8936 C.2    1 <0>      -0.0700
17 C17       4.7738    -4.0640    -2.2388 C.3    1 <0>      -0.0300
18 C18       5.7692    -2.9111    -2.3842 C.3    1 <0>      -0.1400
19 C19       3.8337    -3.6742    -1.0953 C.3    1 <0>       0.1600
20 F20       2.9111    -4.7049    -0.8864 F      1 <0>      -0.1900
21 C21       4.6443    -3.4857     0.1834 C.3    1 <0>       0.0900
22 H22       5.0831    -4.4414     0.4703 H      1 <0>       0.0700
23 O23       5.6930    -2.5471    -0.0637 O.3    1 <0>      -0.5400
24 C24       3.7718    -2.9680     1.3378 C.3    1 <0>      -0.1300
25 C25       3.0798    -1.6830     0.8813 C.3    1 <0>      -0.0400
26 C26       4.1232    -0.6815     0.3822 C.3    1 <0>      -0.1600
27 C27       2.1233    -1.0063     1.8599 C.3    1 <0>       0.1100
28 O28       1.5629    -1.9718     2.7521 O.3    1 <0>      -0.5400
29 C29       2.8427     0.0671     2.6354 C.2    1 <0>       0.3300
30 O30       3.4326     0.9428     2.0493 O.2    1 <0>      -0.4000
31 C31       2.8260     0.0476     4.1422 C.3    1 <0>       0.0200
32 O32       3.5720     1.1596     4.6412 O.3    1 <0>      -0.5500
33 H33       2.0206     1.5558     0.7061 H      1 <0>       0.0800
34 H34       0.2444     1.6277     0.6147 H      1 <0>       0.0600
35 H35       1.0475     1.4366     2.1917 H      1 <0>       0.0500
36 H36       0.4460    -0.9233    -1.0509 H      1 <0>       0.0700
37 H37       1.9631     0.0316    -0.9736 H      1 <0>       0.0800
38 H38       1.5392    -3.5027    -2.5468 H      1 <0>       0.0700
39 H39       1.6275    -1.7769    -2.9704 H      1 <0>       0.0800
40 H40       2.5153    -3.2806    -4.7850 H      1 <0>       0.0800
41 H41       3.7410    -2.1416    -4.1687 H      1 <0>       0.0900
42 H42       3.5033    -5.2451    -5.2368 H      1 <0>       0.1400
43 H43       6.2005    -7.2170    -2.3558 H      1 <0>       0.1400
44 H44       6.0790    -5.3072    -0.9550 H      1 <0>       0.1300
45 H45       6.2220    -2.9449    -3.3752 H      1 <0>       0.0500
46 H46       5.2479    -1.9626    -2.2551 H      1 <0>       0.0800
47 H47       6.5467    -3.0046    -1.6261 H      1 <0>       0.1000
48 H48       6.2545    -2.3735     0.7042 H      1 <0>       0.3800
49 H49       2.9920    -3.6939     1.5683 H      1 <0>       0.0900
50 H50       4.3885    -2.7917     2.2192 H      1 <0>       0.0800
51 H51       4.6141    -1.0803    -0.5056 H      1 <0>       0.1000
52 H52       3.6335     0.2602     0.1344 H      1 <0>       0.0700
53 H53       4.8654    -0.5109     1.1621 H      1 <0>       0.0500
54 H54       0.9466    -1.5996     3.3977 H      1 <0>       0.3800
55 H55       1.7967     0.1129     4.4950 H      1 <0>       0.0800
56 H56       3.2741    -0.8799     4.4985 H      1 <0>       0.0800
57 H57       3.6039     1.2105     5.6063 H      1 <0>       0.3900
@<TRIPOS>BOND
1    1    2 1
2    1   33 1
3    1   34 1
4    1   35 1
5    2    3 1
6    2   27 1
7    2    4 1
8    4    5 1
9    4   36 1
10    4   37 1
11    5    6 1
12    5   25 1
13    5    7 1
14    7    8 1
15    7   19 1
16    7    9 1
17    9   10 1
18    9   38 1
19    9   39 1
20   10   11 1
21   10   40 1
22   10   41 1
23   11   17 1
24   11   12 2
25   12   13 1
26   12   42 1
27   13   14 2
28   13   15 1
29   15   16 2
30   15   43 1
31   16   17 1
32   16   44 1
33   17   18 1
34   17   19 1
35   18   45 1
36   18   46 1
37   18   47 1
38   19   20 1
39   19   21 1
40   21   22 1
41   21   23 1
42   21   24 1
43   23   48 1
44   24   25 1
45   24   49 1
46   24   50 1
47   25   26 1
48   25   27 1
49   26   51 1
50   26   52 1
51   26   53 1
52   27   28 1
53   27   29 1
54   28   54 1
55   29   30 2
56   29   31 1
57   31   32 1
58   31   55 1
59   31   56 1
60   32   57 1
