@<TRIPOS>MOLECULE
ZINC000004978673
55   54    0    0    0
SMALL
USER_CHARGES
NO_NAME
@<TRIPOS>ATOM
1 C1       -0.0187     1.5258     0.0104 C.3    1 <0>      -0.1500
2 C2        0.0021    -0.0041     0.0020 C.3    1 <0>      -0.1300
3 C3        0.7182    -0.4975    -1.2568 C.3    1 <0>      -0.1200
4 C4        0.7390    -2.0273    -1.2652 C.3    1 <0>      -0.1200
5 C5        1.4551    -2.5207    -2.5240 C.3    1 <0>      -0.1200
6 C6        1.4758    -4.0506    -2.5324 C.3    1 <0>      -0.1200
7 C7        2.1920    -4.5440    -3.7912 C.3    1 <0>      -0.1200
8 C8        2.2127    -6.0738    -3.7996 C.3    1 <0>      -0.1200
9 C9        2.9289    -6.5673    -5.0584 C.3    1 <0>      -0.1200
10 C10       2.9496    -8.0971    -5.0668 C.3    1 <0>      -0.1200
11 C11       3.6658    -8.5905    -6.3257 C.3    1 <0>      -0.1200
12 C12       3.6865   -10.1203    -6.3341 C.3    1 <0>      -0.1200
13 C13       4.4026   -10.6138    -7.5929 C.3    1 <0>      -0.1200
14 C14       4.4234   -12.1436    -7.6013 C.3    1 <0>      -0.1200
15 C15       5.1395   -12.6370    -8.8601 C.3    1 <0>      -0.1200
16 C16       5.1603   -14.1669    -8.8685 C.3    1 <0>      -0.0900
17 C17       5.8764   -14.6603   -10.1273 C.3    1 <0>      -0.1800
18 C18       5.8969   -16.1671   -10.1356 C.2    1 <0>       0.4900
19 O19       5.3860   -16.7888    -9.2196 O.co2  1 <0>      -0.7000
20 O20       6.4243   -16.7646   -11.0583 O.co2  1 <0>      -0.7100
21 H21       1.0039     1.9031     0.0027 H      1 <0>       0.0500
22 H22      -0.5459     1.8868    -0.8726 H      1 <0>       0.0500
23 H23      -0.5289     1.8773     0.9072 H      1 <0>       0.0500
24 H24       0.5293    -0.3651     0.8851 H      1 <0>       0.0600
25 H25      -1.0205    -0.3814     0.0098 H      1 <0>       0.0600
26 H26       0.1910    -0.1364    -2.1398 H      1 <0>       0.0600
27 H27       1.7408    -0.1202    -1.2645 H      1 <0>       0.0600
28 H28       1.2661    -2.3884    -0.3821 H      1 <0>       0.0600
29 H29      -0.2836    -2.4046    -1.2575 H      1 <0>       0.0600
30 H30       0.9279    -2.1597    -3.4071 H      1 <0>       0.0600
31 H31       2.4777    -2.1435    -2.5317 H      1 <0>       0.0600
32 H32       2.0030    -4.4117    -1.6494 H      1 <0>       0.0600
33 H33       0.4533    -4.4279    -2.5247 H      1 <0>       0.0600
34 H34       1.6648    -4.1829    -4.6743 H      1 <0>       0.0600
35 H35       3.2146    -4.1667    -3.7990 H      1 <0>       0.0600
36 H36       2.7399    -6.4349    -2.9166 H      1 <0>       0.0600
37 H37       1.1901    -6.4511    -3.7919 H      1 <0>       0.0600
38 H38       2.4017    -6.2062    -5.9415 H      1 <0>       0.0600
39 H39       3.9515    -6.1900    -5.0662 H      1 <0>       0.0600
40 H40       3.4768    -8.4582    -4.1838 H      1 <0>       0.0600
41 H41       1.9270    -8.4744    -5.0591 H      1 <0>       0.0600
42 H42       3.1386    -8.2294    -7.2087 H      1 <0>       0.0600
43 H43       4.6884    -8.2132    -6.3334 H      1 <0>       0.0600
44 H44       4.2137   -10.4814    -5.4510 H      1 <0>       0.0600
45 H45       2.6639   -10.4976    -6.3263 H      1 <0>       0.0600
46 H46       3.8755   -10.2527    -8.4759 H      1 <0>       0.0600
47 H47       5.4252   -10.2365    -7.6006 H      1 <0>       0.0600
48 H48       4.9506   -12.5047    -6.7182 H      1 <0>       0.0600
49 H49       3.4008   -12.5209    -7.5935 H      1 <0>       0.0600
50 H50       4.6123   -12.2759    -9.7431 H      1 <0>       0.0500
51 H51       6.1621   -12.2597    -8.8678 H      1 <0>       0.0500
52 H52       5.6875   -14.5279    -7.9854 H      1 <0>       0.0600
53 H53       4.1377   -14.5441    -8.8608 H      1 <0>       0.0600
54 H54       5.3492   -14.2992   -11.0104 H      1 <0>       0.0500
55 H55       6.8990   -14.2830   -10.1350 H      1 <0>       0.0500
@<TRIPOS>BOND
1    1    2 1
2    1   21 1
3    1   22 1
4    1   23 1
5    2    3 1
6    2   24 1
7    2   25 1
8    3    4 1
9    3   26 1
10    3   27 1
11    4    5 1
12    4   28 1
13    4   29 1
14    5    6 1
15    5   30 1
16    5   31 1
17    6    7 1
18    6   32 1
19    6   33 1
20    7    8 1
21    7   34 1
22    7   35 1
23    8    9 1
24    8   36 1
25    8   37 1
26    9   10 1
27    9   38 1
28    9   39 1
29   10   11 1
30   10   40 1
31   10   41 1
32   11   12 1
33   11   42 1
34   11   43 1
35   12   13 1
36   12   44 1
37   12   45 1
38   13   14 1
39   13   46 1
40   13   47 1
41   14   15 1
42   14   48 1
43   14   49 1
44   15   16 1
45   15   50 1
46   15   51 1
47   16   17 1
48   16   52 1
49   16   53 1
50   17   18 1
51   17   54 1
52   17   55 1
53   18   19 ar
54   18   20 ar
