@<TRIPOS>MOLECULE
ZINC000001530862
41    42    1     0     0
SMALL
USER_CHARGES
@<TRIPOS>ATOM
1      C1     -0.0173    1.4248    0.0099 C.3      1 ZINC000001530862    0.0200
2      O2      0.0021   -0.0041    0.0020 O.3      1 ZINC000001530862   -0.3100
3      C3      0.6057   -0.6070   -1.0556 C.ar     1 ZINC000001530862    0.1900
4      C4      0.6514   -2.0011   -1.1223 C.ar     1 ZINC000001530862   -0.2300
5      C5      1.2568   -2.6363   -2.1828 C.ar     1 ZINC000001530862    0.2800
6      N6      1.2943   -4.0288   -2.2361 N.pl3    1 ZINC000001530862   -0.7200
7      C7      0.6885   -4.8195   -1.1618 C.3      1 ZINC000001530862    0.1400
8      H8      0.8237   -4.3043   -0.2109 H        1 ZINC000001530862    0.0900
9      C9     -0.8059   -4.9955   -1.4386 C.3      1 ZINC000001530862   -0.1800
10     C10     1.3605   -6.1926   -1.0980 C.3      1 ZINC000001530862   -0.1200
11     C11     2.8278   -6.0242   -0.6986 C.3      1 ZINC000001530862   -0.1500
12     C12     3.4998   -7.3972   -0.6348 C.3      1 ZINC000001530862   -0.0100
13     N13     4.9086   -7.2356   -0.2514 N.4      1 ZINC000001530862   -0.6400
14     H14     5.3518   -8.1411   -0.2093 H        1 ZINC000001530862    0.4400
15     H15     5.3796   -6.6621   -0.9350 H        1 ZINC000001530862    0.4400
16     H16     4.9622   -6.7926    0.6536 H        1 ZINC000001530862    0.4400
17     C17     1.8396   -1.8707   -3.2173 C.ar     1 ZINC000001530862    0.0500
18     N18     2.4329   -2.4617   -4.2580 N.ar     1 ZINC000001530862   -0.4700
19     C19     2.9761   -1.7599   -5.2227 C.ar     1 ZINC000001530862    0.1000
20     C20     2.9627   -0.3667   -5.2125 C.ar     1 ZINC000001530862   -0.1500
21     C21     2.3723    0.3010   -4.1778 C.ar     1 ZINC000001530862   -0.0800
22     C22     1.7899   -0.4571   -3.1435 C.ar     1 ZINC000001530862   -0.0200
23     C23     1.1609    0.1630   -2.0528 C.ar     1 ZINC000001530862   -0.2600
24     H24     1.0053    1.8021    0.0021 H        1 ZINC000001530862    0.0600
25     H25    -0.5445    1.7859   -0.8732 H        1 ZINC000001530862    0.0600
26     H26    -0.5275    1.7763    0.9067 H        1 ZINC000001530862    0.1000
27     H27     0.2066   -2.5879   -0.3322 H        1 ZINC000001530862    0.1400
28     H28     1.7215   -4.4742   -2.9844 H        1 ZINC000001530862    0.4100
29     H29    -1.2566   -5.5838   -0.6393 H        1 ZINC000001530862    0.0700
30     H30    -1.2846   -4.0173   -1.4840 H        1 ZINC000001530862    0.0700
31     H31    -0.9411   -5.5107   -2.3896 H        1 ZINC000001530862    0.0600
32     H32     0.8517   -6.8121   -0.3595 H        1 ZINC000001530862    0.0900
33     H33     1.3027   -6.6712   -2.0756 H        1 ZINC000001530862    0.0800
34     H34     3.3366   -5.4046   -1.4372 H        1 ZINC000001530862    0.0900
35     H35     2.8857   -5.5456    0.2790 H        1 ZINC000001530862    0.0900
36     H36     2.9910   -8.0168    0.1037 H        1 ZINC000001530862    0.1300
37     H37     3.4420   -7.8758   -1.6125 H        1 ZINC000001530862    0.1300
38     H38     3.4467   -2.2752   -6.0470 H        1 ZINC000001530862    0.1600
39     H39     3.4188    0.1844   -6.0215 H        1 ZINC000001530862    0.1400
40     H40     2.3528    1.3805   -4.1532 H        1 ZINC000001530862    0.1400
41     H41     1.1160    1.2405   -1.9940 H        1 ZINC000001530862    0.1300
@<TRIPOS>BOND
1     1     2     1
2     1     24    1
3     1     25    1
4     1     26    1
5     2     3     1
6     3     23    ar
7     3     4     ar
8     4     5     ar
9     4     27    1
10    5     6     1
11    5     17    ar
12    6     7     1
13    6     28    1
14    7     8     1
15    7     9     1
16    7     10    1
17    9     29    1
18    9     30    1
19    9     31    1
20    10    11    1
21    10    32    1
22    10    33    1
23    11    12    1
24    11    34    1
25    11    35    1
26    12    13    1
27    12    36    1
28    12    37    1
29    13    14    1
30    13    15    1
31    13    16    1
32    17    22    ar
33    17    18    ar
34    18    19    ar
35    19    20    ar
36    19    38    1
37    20    21    ar
38    20    39    1
39    21    22    ar
40    21    40    1
41    22    23    ar
42    23    41    1
@<TRIPOS>SUBSTRUCTURE
1   ZINC000001530862 1     RESIDUE    1   A     ZIN   1
