@<TRIPOS>MOLECULE
ZINC000000006157
35   38    0    0    0
SMALL
USER_CHARGES
NO_NAME
@<TRIPOS>ATOM
1 N1       -0.0111     0.9658     0.0074 N.pl3  1 <0>      -0.7600
2 H2        0.0021    -0.0041     0.0020 H      1 <0>       0.4400
3 H3        0.8223     1.4622     0.0021 H      1 <0>       0.4400
4 C4       -1.1485     1.6021     0.0162 C.cat  1 <0>       0.7200
5 N5       -1.2564     2.9660     0.0182 N.pl3  1 <0>      -0.6900
6 C6       -2.6792     3.3330     0.0480 C.3    1 <0>       0.0900
7 C7       -3.4199     1.9817     0.0774 C.3    1 <0>       0.1700
8 H8       -4.0454     1.8966    -0.8112 H      1 <0>       0.1300
9 C9       -4.2870     1.9204     1.3005 C.ar   1 <0>      -0.1100
10 C10      -5.1299     3.0241     1.4664 C.ar   1 <0>      -0.1200
11 C11      -6.0217     3.0981     2.5103 C.ar   1 <0>      -0.1000
12 C12      -6.0916     2.0527     3.4123 C.ar   1 <0>      -0.1000
13 C13      -5.2516     0.9757     3.2626 C.ar   1 <0>      -0.1200
14 C14      -4.3188     0.9088     2.2190 C.ar   1 <0>      -0.0500
15 C15      -3.4056    -0.2718     2.2936 C.3    1 <0>      -0.0500
16 C16      -3.2131    -1.0288     1.0213 C.ar   1 <0>      -0.0500
17 C17      -3.6395    -2.3359     0.8933 C.ar   1 <0>      -0.1000
18 C18      -3.3760    -3.0356    -0.2708 C.ar   1 <0>      -0.0800
19 C19      -2.6803    -2.4330    -1.3028 C.ar   1 <0>      -0.1000
20 C20      -2.2785    -1.1154    -1.1906 C.ar   1 <0>      -0.1100
21 C21      -2.5804    -0.4013    -0.0396 C.ar   1 <0>       0.0900
22 N22      -2.3735     0.9769     0.0186 N.pl3  1 <0>      -0.5200
23 H23      -0.5138     3.5899     0.0031 H      1 <0>       0.4500
24 H24      -2.9051     3.9111     0.9440 H      1 <0>       0.1200
25 H25      -2.9467     3.8949    -0.8469 H      1 <0>       0.1200
26 H26      -5.0789     3.8377     0.7579 H      1 <0>       0.1300
27 H27      -6.6593     3.9623     2.6244 H      1 <0>       0.1400
28 H28      -6.7997     2.0824     4.2273 H      1 <0>       0.1300
29 H29      -5.3116     0.1597     3.9676 H      1 <0>       0.1300
30 H30      -2.4298     0.0737     2.6351 H      1 <0>       0.0900
31 H31      -3.7986    -0.9593     3.0426 H      1 <0>       0.1000
32 H32      -4.1772    -2.8112     1.7003 H      1 <0>       0.1400
33 H33      -3.7146    -4.0560    -0.3738 H      1 <0>       0.1400
34 H34      -2.4503    -2.9928    -2.1973 H      1 <0>       0.1400
35 H35      -1.7325    -0.6440    -1.9943 H      1 <0>       0.1300
@<TRIPOS>BOND
1    1    2 1
2    1    3 1
3    1    4 ar
4    4   22 ar
5    4    5 ar
6    5    6 1
7    5   23 1
8    6    7 1
9    6   24 1
10    6   25 1
11    7    8 1
12    7   22 1
13    7    9 1
14    9   14 ar
15    9   10 ar
16   10   11 ar
17   10   26 1
18   11   12 ar
19   11   27 1
20   12   13 ar
21   12   28 1
22   13   14 ar
23   13   29 1
24   14   15 1
25   15   16 1
26   15   30 1
27   15   31 1
28   16   21 ar
29   16   17 ar
30   17   18 ar
31   17   32 1
32   18   19 ar
33   18   33 1
34   19   20 ar
35   19   34 1
36   20   21 ar
37   20   35 1
38   21   22 1
