@<TRIPOS>MOLECULE
ZINC000004102194
78    79    1     0     0
SMALL
USER_CHARGES
@<TRIPOS>ATOM
1      C1     -0.7704    1.3583    0.0874 C.3      1 ZINC000004102194   -0.1300
2      C2     -0.2221   -0.0441    0.0251 C.2      1 ZINC000004102194   -0.0200
3      C3      0.1225   -0.6742    1.1455 C.2      1 ZINC000004102194   -0.1900
4      C4      0.1250    0.0494    2.4245 C.2      1 ZINC000004102194    0.4900
5      O5     -0.0738    1.2482    2.4448 O.2      1 ZINC000004102194   -0.5100
6      O6      0.3477   -0.6164    3.5752 O.3      1 ZINC000004102194   -0.3500
7      C7      0.3357    0.1626    4.8005 C.3      1 ZINC000004102194    0.0700
8      C8      0.6050   -0.7579    5.9926 C.3      1 ZINC000004102194   -0.1200
9      C9      0.5924    0.0630    7.2837 C.3      1 ZINC000004102194   -0.1200
10     C10     0.8618   -0.8574    8.4759 C.3      1 ZINC000004102194   -0.1200
11     C11     0.8491   -0.0366    9.7670 C.3      1 ZINC000004102194   -0.1200
12     C12     1.1185   -0.9570   10.9591 C.3      1 ZINC000004102194   -0.1200
13     C13     1.1059   -0.1362   12.2502 C.3      1 ZINC000004102194   -0.0900
14     C14     1.3752   -1.0566   13.4424 C.3      1 ZINC000004102194   -0.1800
15     C15     1.3628   -0.2481   14.7141 C.2      1 ZINC000004102194    0.4900
16     O16     1.1575    0.9530   14.6709 O.co2    1 ZINC000004102194   -0.7000
17     O17     1.5580   -0.7950   15.7861 O.co2    1 ZINC000004102194   -0.7100
18     C18    -0.0639   -0.7328   -1.3060 C.3      1 ZINC000004102194   -0.0900
19     C19    -1.3880   -1.3900   -1.7006 C.3      1 ZINC000004102194    0.0700
20     H20    -2.1820   -0.6433   -1.6894 H        1 ZINC000004102194    0.0800
21     O21    -1.6991   -2.4305   -0.7718 O.3      1 ZINC000004102194   -0.3600
22     C22    -2.9358   -3.0966   -1.0345 C.3      1 ZINC000004102194    0.0700
23     C23    -2.8745   -3.7583   -2.4137 C.3      1 ZINC000004102194   -0.1100
24     H24    -3.8322   -4.2294   -2.6345 H        1 ZINC000004102194    0.1000
25     C25    -1.7695   -4.8165   -2.4244 C.3      1 ZINC000004102194   -0.1000
26     C26    -2.1311   -5.9413   -1.4522 C.3      1 ZINC000004102194   -0.0100
27     H27    -3.1971   -6.1177   -1.3084 H        1 ZINC000004102194    0.1200
28     O28    -1.2633   -6.1639   -0.3390 O.3      1 ZINC000004102194   -0.3300
29     C29    -1.1924   -7.1470   -1.3761 C.3      1 ZINC000004102194    0.0100
30     H30    -0.3110   -7.1461   -2.0174 H        1 ZINC000004102194    0.1200
31     C31    -1.8123   -8.5187   -1.1017 C.3      1 ZINC000004102194   -0.0800
32     H32    -2.3676   -8.4855   -0.1643 H        1 ZINC000004102194    0.0900
33     C33    -2.7612   -8.8871   -2.2439 C.3      1 ZINC000004102194   -0.1500
34     C34    -0.7038   -9.5684   -1.0009 C.3      1 ZINC000004102194    0.1100
35     H35    -0.1484   -9.6016   -1.9382 H        1 ZINC000004102194    0.0600
36     C36    -1.3237  -10.9400   -0.7265 C.3      1 ZINC000004102194   -0.1900
37     O37     0.1825   -9.2242    0.0659 O.3      1 ZINC000004102194   -0.5600
38     C38    -2.5732   -2.6911   -3.4704 C.3      1 ZINC000004102194    0.1200
39     H39    -2.4728   -3.1636   -4.4475 H        1 ZINC000004102194    0.0700
40     O40    -3.6391   -1.7400   -3.5067 O.3      1 ZINC000004102194   -0.5600
41     C41    -1.2646   -1.9829   -3.1067 C.3      1 ZINC000004102194    0.0400
42     H42    -0.4440   -2.7000   -3.1286 H        1 ZINC000004102194    0.0700
43     O43    -1.0102   -0.9372   -4.0469 O.3      1 ZINC000004102194   -0.5600
44     H44     0.0546    2.0692    0.1341 H        1 ZINC000004102194    0.0800
45     H45    -1.3689    1.5542   -0.8022 H        1 ZINC000004102194    0.0600
46     H46    -1.3933    1.4657    0.9753 H        1 ZINC000004102194    0.0900
47     H47     0.4003   -1.7174    1.1147 H        1 ZINC000004102194    0.1400
48     H48     1.1091    0.9291    4.7512 H        1 ZINC000004102194    0.0700
49     H49    -0.6385    0.6365    4.9202 H        1 ZINC000004102194    0.0700
50     H50    -0.1683   -1.5244    6.0418 H        1 ZINC000004102194    0.0700
51     H51     1.5793   -1.2318    5.8729 H        1 ZINC000004102194    0.0700
52     H52     1.3658    0.8295    7.2345 H        1 ZINC000004102194    0.0700
53     H53    -0.3818    0.5369    7.4034 H        1 ZINC000004102194    0.0700
54     H54     0.0884   -1.6240    8.5251 H        1 ZINC000004102194    0.0600
55     H55     1.8360   -1.3314    8.3561 H        1 ZINC000004102194    0.0600
56     H56     1.6225    0.7299    9.7178 H        1 ZINC000004102194    0.0600
57     H57    -0.1251    0.4374    9.8867 H        1 ZINC000004102194    0.0600
58     H58     0.3451   -1.7235   11.0083 H        1 ZINC000004102194    0.0500
59     H59     2.0927   -1.4309   10.8394 H        1 ZINC000004102194    0.0500
60     H60     1.8792    0.6304   12.2010 H        1 ZINC000004102194    0.0600
61     H61     0.1316    0.3378   12.3700 H        1 ZINC000004102194    0.0600
62     H62     0.6018   -1.8231   13.4916 H        1 ZINC000004102194    0.0500
63     H63     2.3494   -1.5305   13.3227 H        1 ZINC000004102194    0.0500
64     H64     0.2181   -0.0007   -2.0627 H        1 ZINC000004102194    0.0900
65     H65     0.7118   -1.4949   -1.2308 H        1 ZINC000004102194    0.0900
66     H66    -3.1075   -3.8578   -0.2734 H        1 ZINC000004102194    0.1000
67     H67    -3.7501   -2.3724   -1.0146 H        1 ZINC000004102194    0.0600
68     H68    -1.6668   -5.2244   -3.4299 H        1 ZINC000004102194    0.0800
69     H69    -0.8274   -4.3612   -2.1190 H        1 ZINC000004102194    0.0900
70     H70    -3.2029   -9.8643   -2.0484 H        1 ZINC000004102194    0.0700
71     H71    -3.5510   -8.1393   -2.3157 H        1 ZINC000004102194    0.0600
72     H72    -2.2059   -8.9203   -3.1812 H        1 ZINC000004102194    0.0600
73     H73    -1.9997  -11.2025   -1.5402 H        1 ZINC000004102194    0.0700
74     H74    -0.5339  -11.6878   -0.6547 H        1 ZINC000004102194    0.0600
75     H75    -1.8790  -10.9068    0.2108 H        1 ZINC000004102194    0.0700
76     H76     0.9116   -9.8476    0.1881 H        1 ZINC000004102194    0.3800
77     H77    -3.5143   -1.0338   -4.1554 H        1 ZINC000004102194    0.3900
78     H78    -0.1952   -0.4453   -3.8770 H        1 ZINC000004102194    0.3800
@<TRIPOS>BOND
1     1     2     1
2     1     44    1
3     1     45    1
4     1     46    1
5     2     3     2
6     2     18    1
7     3     4     1
8     3     47    1
9     4     5     2
10    4     6     1
11    6     7     1
12    7     8     1
13    7     48    1
14    7     49    1
15    8     9     1
16    8     50    1
17    8     51    1
18    9     10    1
19    9     52    1
20    9     53    1
21    10    11    1
22    10    54    1
23    10    55    1
24    11    12    1
25    11    56    1
26    11    57    1
27    12    13    1
28    12    58    1
29    12    59    1
30    13    14    1
31    13    60    1
32    13    61    1
33    14    15    1
34    14    62    1
35    14    63    1
36    15    16    ar
37    15    17    ar
38    18    19    1
39    18    64    1
40    18    65    1
41    19    20    1
42    19    41    1
43    19    21    1
44    21    22    1
45    22    23    1
46    22    66    1
47    22    67    1
48    23    24    1
49    23    25    1
50    23    38    1
51    25    26    1
52    25    68    1
53    25    69    1
54    26    27    1
55    26    29    1
56    26    28    1
57    28    29    1
58    29    30    1
59    29    31    1
60    31    32    1
61    31    33    1
62    31    34    1
63    33    70    1
64    33    71    1
65    33    72    1
66    34    35    1
67    34    36    1
68    34    37    1
69    36    73    1
70    36    74    1
71    36    75    1
72    37    76    1
73    38    39    1
74    38    40    1
75    38    41    1
76    40    77    1
77    41    42    1
78    41    43    1
79    43    78    1
@<TRIPOS>SUBSTRUCTURE
1   ZINC000004102194 1     RESIDUE    1   A     ZIN   1
