@<TRIPOS>MOLECULE
ZINC000003795819
46    50    1     0     0
SMALL
USER_CHARGES
@<TRIPOS>ATOM
1      O1      0.0109   -0.0068   -0.0952 O.2      1 ZINC000003795819   -0.5300
2      C2     -0.0112    1.2073   -0.0424 C.2      1 ZINC000003795819    0.5600
3      C3     -1.3015    1.9285   -0.0196 C.ar     1 ZINC000003795819   -0.1300
4      C4     -2.4814    1.2696   -0.3572 C.ar     1 ZINC000003795819   -0.0600
5      C5     -3.6730    1.9659   -0.3446 C.ar     1 ZINC000003795819   -0.1300
6      C6     -3.6896    3.3012    0.0022 C.ar     1 ZINC000003795819   -0.0900
7      C7     -2.5167    3.9681    0.3473 C.ar     1 ZINC000003795819   -0.0800
8      C8     -1.3256    3.2816    0.3359 C.ar     1 ZINC000003795819   -0.0400
9      C9     -0.0279    3.9465    0.7170 C.3      1 ZINC000003795819   -0.0700
10     H10     0.1630    3.7872    1.7783 H        1 ZINC000003795819    0.0900
11     C11    -0.1355    5.4481    0.4386 C.3      1 ZINC000003795819   -0.1100
12     C12    -1.3200    6.0078    1.2221 C.3      1 ZINC000003795819   -0.1200
13     C13    -2.6261    5.4159    0.7265 C.3      1 ZINC000003795819   -0.0800
14     C14     1.1250    3.3667   -0.0990 C.3      1 ZINC000003795819    0.1100
15     N15     1.1392    1.9054    0.0014 N.am     1 ZINC000003795819   -0.6000
16     C16     2.4152    1.1985    0.1371 C.3      1 ZINC000003795819    0.1100
17     H17     2.2288    0.1431    0.3359 H        1 ZINC000003795819    0.1000
18     C18     3.2171    1.8044    1.2926 C.3      1 ZINC000003795819    0.0400
19     N19     4.4920    2.3248    0.7807 N.3      1 ZINC000003795819   -0.5300
20     C20     5.3093    1.2473    0.2058 C.3      1 ZINC000003795819    0.0500
21     C21     4.5668    0.6248   -0.9799 C.3      1 ZINC000003795819   -0.1500
22     C22     3.2230    1.3426   -1.1588 C.3      1 ZINC000003795819   -0.1000
23     C23     3.4928    2.8334   -1.3989 C.3      1 ZINC000003795819   -0.1700
24     C24     4.2694    3.3963   -0.1999 C.3      1 ZINC000003795819    0.0500
25     H25    -2.4639    0.2238   -0.6265 H        1 ZINC000003795819    0.1400
26     H26    -4.5933    1.4651   -0.6067 H        1 ZINC000003795819    0.1300
27     H27    -4.6268    3.8378    0.0057 H        1 ZINC000003795819    0.1300
28     H28     0.7809    5.9454    0.7566 H        1 ZINC000003795819    0.0800
29     H29    -0.2921    5.6120   -0.6275 H        1 ZINC000003795819    0.0700
30     H30    -1.1962    5.7684    2.2782 H        1 ZINC000003795819    0.0700
31     H31    -1.3492    7.0908    1.1022 H        1 ZINC000003795819    0.0700
32     H32    -2.9580    5.9813   -0.1443 H        1 ZINC000003795819    0.0800
33     H33    -3.3755    5.5161    1.5116 H        1 ZINC000003795819    0.0800
34     H34     1.0101    3.6612   -1.1422 H        1 ZINC000003795819    0.0700
35     H35     2.0677    3.7593    0.2822 H        1 ZINC000003795819    0.1000
36     H36     2.6476    2.6170    1.7437 H        1 ZINC000003795819    0.0900
37     H37     3.4121    1.0370    2.0417 H        1 ZINC000003795819    0.0900
38     H38     6.2612    1.6549   -0.1346 H        1 ZINC000003795819    0.0800
39     H39     5.4899    0.4843    0.9630 H        1 ZINC000003795819    0.0800
40     H40     5.1642    0.7372   -1.8847 H        1 ZINC000003795819    0.0700
41     H41     4.3904   -0.4332   -0.7857 H        1 ZINC000003795819    0.0700
42     H42     2.6751    0.9095   -1.9956 H        1 ZINC000003795819    0.0800
43     H43     4.0865    2.9558   -2.3048 H        1 ZINC000003795819    0.0700
44     H44     2.5463    3.3633   -1.5059 H        1 ZINC000003795819    0.0800
45     H45     3.6927    4.1967    0.2636 H        1 ZINC000003795819    0.0800
46     H46     5.2284    3.7879   -0.5392 H        1 ZINC000003795819    0.0800
@<TRIPOS>BOND
1     1     2     2
2     2     15    am
3     2     3     1
4     3     8     ar
5     3     4     ar
6     4     5     ar
7     4     25    1
8     5     6     ar
9     5     26    1
10    6     7     ar
11    6     27    1
12    7     13    1
13    7     8     ar
14    8     9     1
15    9     10    1
16    9     11    1
17    9     14    1
18    11    12    1
19    11    28    1
20    11    29    1
21    12    13    1
22    12    30    1
23    12    31    1
24    13    32    1
25    13    33    1
26    14    15    1
27    14    34    1
28    14    35    1
29    15    16    1
30    16    17    1
31    16    22    1
32    16    18    1
33    18    19    1
34    18    36    1
35    18    37    1
36    19    24    1
37    19    20    1
38    20    21    1
39    20    38    1
40    20    39    1
41    21    22    1
42    21    40    1
43    21    41    1
44    22    23    1
45    22    42    1
46    23    24    1
47    23    43    1
48    23    44    1
49    24    45    1
50    24    46    1
@<TRIPOS>SUBSTRUCTURE
1   ZINC000003795819 1     RESIDUE    1   A     ZIN   1
