@<TRIPOS>MOLECULE
ZINC000000897244
25   26    0    0    0
SMALL
USER_CHARGES
NO_NAME
@<TRIPOS>ATOM
1 C1       -0.0187     1.5258     0.0104 C.3    1 <0>      -0.1200
2 C2        0.0021    -0.0041     0.0020 C.3    1 <0>      -0.4600
3 C3       -1.4162    -0.5741    -0.0656 C.3    1 <0>      -0.1200
4 C4        0.8846    -0.5489    -1.1524 C.3    1 <0>       0.0200
5 H5        1.7560     0.0939    -1.2773 H      1 <0>       0.0900
6 C6        0.0857    -0.5645    -2.4301 C.2    1 <0>       0.5200
7 O7        0.0871     0.4106    -3.1620 O.co2  1 <0>      -0.6800
8 O8       -0.5621    -1.5523    -2.7320 O.co2  1 <0>      -0.6600
9 N9        1.3244    -1.9109    -0.8366 N.am   1 <0>      -0.4600
10 C10       2.6343    -2.2107    -0.9888 C.2    1 <0>       0.4900
11 O11       3.3317    -2.3079    -1.9762 O.2    1 <0>      -0.4500
12 C12       2.9385    -2.3835     0.4754 C.3    1 <0>      -0.1700
13 C13       1.4293    -2.2053     0.5979 C.3    1 <0>      -0.4100
14 H14       0.8940    -3.0981     0.9211 H      1 <0>       0.1700
15 S15       0.9203    -0.6677     1.4534 S.o2   1 <0>       2.3500
16 O16       2.0606     0.1397     1.7124 O.2    1 <0>      -0.9200
17 O17       0.0095    -0.9772     2.4993 O.2    1 <0>      -0.9200
18 H18       1.0039     1.9031     0.0027 H      1 <0>       0.0700
19 H19      -0.5459     1.8868    -0.8726 H      1 <0>       0.1000
20 H20      -0.5289     1.8773     0.9072 H      1 <0>       0.0700
21 H21      -1.8998    -0.2373    -0.9825 H      1 <0>       0.0900
22 H22      -1.3708    -1.6631    -0.0576 H      1 <0>       0.0700
23 H23      -1.9883    -0.2279     0.7952 H      1 <0>       0.0700
24 H24       3.2984    -3.3759     0.7467 H      1 <0>       0.1300
25 H25       3.5246    -1.5750     0.9123 H      1 <0>       0.1400
@<TRIPOS>BOND
1    1    2 1
2    1   18 1
3    1   19 1
4    1   20 1
5    2   15 1
6    2    3 1
7    2    4 1
8    3   21 1
9    3   22 1
10    3   23 1
11    4    5 1
12    4    6 1
13    4    9 1
14    6    7 ar
15    6    8 ar
16    9   13 1
17    9   10 am
18   10   11 2
19   10   12 1
20   12   13 1
21   12   24 1
22   12   25 1
23   13   14 1
24   13   15 1
25   15   16 2
26   15   17 2
