@<TRIPOS>MOLECULE
ZINC000087515509
35    36    1     0     0
SMALL
USER_CHARGES
@<TRIPOS>ATOM
1      C1     -0.0187    1.5258    0.0104 C.3      1 ZINC000087515509   -0.2000
2      C2      0.0021   -0.0041    0.0020 C.3      1 ZINC000087515509    0.0800
3      H3      0.5123   -0.3556   -0.8948 H        1 ZINC000087515509    0.1000
4      C4      0.7421   -0.5109    1.2415 C.3      1 ZINC000087515509    0.0600
5      N5      0.6589   -1.9765    1.2963 N.3      1 ZINC000087515509   -0.5100
6      C6      1.4074   -2.5887    0.1883 C.3      1 ZINC000087515509    0.0300
7      C7      1.2867   -4.0879    0.2758 C.2      1 ZINC000087515509    0.5300
8      O8      1.3455   -4.7547   -0.7348 O.2      1 ZINC000087515509   -0.4900
9      N9      1.1150   -4.6935    1.4638 N.am     1 ZINC000087515509   -0.6700
10     C10     1.0358   -3.9865    2.6047 C.2      1 ZINC000087515509    0.5300
11     O11     0.8721   -4.5636    3.6582 O.2      1 ZINC000087515509   -0.4900
12     C12     1.1485   -2.4843    2.5868 C.3      1 ZINC000087515509    0.0300
13     N13    -1.3761   -0.5125    0.0124 N.3      1 ZINC000087515509   -0.5100
14     C14    -2.1451    0.0720    1.1214 C.3      1 ZINC000087515509    0.0300
15     C15    -3.5454   -0.4835    1.1018 C.2      1 ZINC000087515509    0.5300
16     O16    -4.1680   -0.5783    2.1376 O.2      1 ZINC000087515509   -0.4900
17     N17    -4.1115   -0.8746   -0.0533 N.am     1 ZINC000087515509   -0.6700
18     C18    -3.4487   -0.7932   -1.2202 C.2      1 ZINC000087515509    0.5300
19     O19    -3.9856   -1.1626   -2.2424 O.2      1 ZINC000087515509   -0.4900
20     C20    -2.0454   -0.2475   -1.2700 C.3      1 ZINC000087515509    0.0200
21     H21     1.0039    1.9031    0.0027 H        1 ZINC000087515509    0.0700
22     H22    -0.5459    1.8868   -0.8726 H        1 ZINC000087515509    0.0700
23     H23    -0.5289    1.8773    0.9072 H        1 ZINC000087515509    0.0700
24     H24     1.7879   -0.2080    1.1895 H        1 ZINC000087515509    0.0600
25     H25     0.2852   -0.0874    2.1360 H        1 ZINC000087515509    0.0900
26     H26     0.9974   -2.2454   -0.7615 H        1 ZINC000087515509    0.1300
27     H27     2.4572   -2.3034    0.2567 H        1 ZINC000087515509    0.0800
28     H28     1.0465   -5.6605    1.4985 H        1 ZINC000087515509    0.4200
29     H29     2.1912   -2.1959    2.7196 H        1 ZINC000087515509    0.0900
30     H30     0.5484   -2.0647    3.3943 H        1 ZINC000087515509    0.1300
31     H31    -1.6671   -0.1795    2.0682 H        1 ZINC000087515509    0.1300
32     H32    -2.1817    1.1554    1.0078 H        1 ZINC000087515509    0.0900
33     H33    -5.0168   -1.2230   -0.0445 H        1 ZINC000087515509    0.4100
34     H34    -2.0789    0.8274   -1.4478 H        1 ZINC000087515509    0.0900
35     H35    -1.4943   -0.7332   -2.0753 H        1 ZINC000087515509    0.1300
@<TRIPOS>BOND
1     1     2     1
2     1     21    1
3     1     22    1
4     1     23    1
5     2     3     1
6     2     4     1
7     2     13    1
8     4     5     1
9     4     24    1
10    4     25    1
11    5     12    1
12    5     6     1
13    6     7     1
14    6     26    1
15    6     27    1
16    7     8     2
17    7     9     am
18    9     10    am
19    9     28    1
20    10    11    2
21    10    12    1
22    12    29    1
23    12    30    1
24    13    20    1
25    13    14    1
26    14    15    1
27    14    31    1
28    14    32    1
29    15    16    2
30    15    17    am
31    17    18    am
32    17    33    1
33    18    19    2
34    18    20    1
35    20    34    1
36    20    35    1
@<TRIPOS>SUBSTRUCTURE
1   ZINC000087515509 1     RESIDUE    1   A     ZIN   1
