@<TRIPOS>MOLECULE
ZINC000003830716
66    69    1     0     0
SMALL
USER_CHARGES
@<TRIPOS>ATOM
1      C1      0.0964    1.1139   -0.6193 C.3      1 ZINC000003830716   -0.1500
2      C2      0.1552   -0.4065   -0.4585 C.3      1 ZINC000003830716    0.0600
3      O3      0.7783   -0.7352    0.8111 O.3      1 ZINC000003830716   -0.3500
4      C4      0.9071   -2.0380    1.1075 C.2      1 ZINC000003830716    0.4700
5      O5      0.5124   -2.8760    0.3318 O.2      1 ZINC000003830716   -0.5000
6      C6      1.5442   -2.4555    2.4079 C.3      1 ZINC000003830716    0.0000
7      C7      2.9533   -1.9250    2.4716 C.ar     1 ZINC000003830716   -0.0900
8      C8      4.0169   -2.8005    2.5855 C.ar     1 ZINC000003830716   -0.1100
9      C9      5.3095   -2.3139    2.6439 C.ar     1 ZINC000003830716   -0.1200
10     C10     5.5384   -0.9518    2.5879 C.ar     1 ZINC000003830716   -0.1100
11     C11     4.4748   -0.0763    2.4730 C.ar     1 ZINC000003830716   -0.1200
12     C12     3.1825   -0.5632    2.4103 C.ar     1 ZINC000003830716   -0.1000
13     C13     0.7318   -1.8954    3.5787 C.3      1 ZINC000003830716   -0.1000
14     C14    -0.6800   -2.4851    3.5420 C.3      1 ZINC000003830716    0.0500
15     N15    -0.6029   -3.9487    3.6322 N.3      1 ZINC000003830716   -0.5300
16     C16    -1.9431   -4.5408    3.7392 C.3      1 ZINC000003830716    0.0500
17     C17    -1.8182   -6.0272    4.0797 C.3      1 ZINC000003830716   -0.1000
18     C18    -3.2106   -6.6141    4.3200 C.3      1 ZINC000003830716    0.1300
19     C19    -4.0396   -6.4178    3.1196 C.1      1 ZINC000003830716    0.2200
20     N20    -4.6794   -6.2664    2.1932 N.1      1 ZINC000003830716   -0.4200
21     C21    -3.0910   -8.0876    4.6124 C.ar     1 ZINC000003830716   -0.0800
22     C22    -1.8430   -8.6748    4.7052 C.ar     1 ZINC000003830716   -0.1100
23     C23    -1.7333  -10.0264    4.9735 C.ar     1 ZINC000003830716   -0.1200
24     C24    -2.8716  -10.7908    5.1495 C.ar     1 ZINC000003830716   -0.1100
25     C25    -4.1196  -10.2034    5.0576 C.ar     1 ZINC000003830716   -0.1200
26     C26    -4.2292   -8.8509    4.7935 C.ar     1 ZINC000003830716   -0.1000
27     C27    -3.8528   -5.9196    5.4931 C.ar     1 ZINC000003830716   -0.0700
28     C28    -4.9866   -5.1513    5.3054 C.ar     1 ZINC000003830716   -0.1200
29     C29    -5.5757   -4.5143    6.3815 C.ar     1 ZINC000003830716   -0.1100
30     C30    -5.0314   -4.6459    7.6454 C.ar     1 ZINC000003830716   -0.1100
31     C31    -3.8982   -5.4150    7.8332 C.ar     1 ZINC000003830716   -0.1100
32     C32    -3.3115   -6.0555    6.7578 C.ar     1 ZINC000003830716   -0.0900
33     C33     0.1322   -4.5129    2.4931 C.3      1 ZINC000003830716    0.0400
34     C34     1.5682   -3.9838    2.4985 C.3      1 ZINC000003830716   -0.1000
35     H35     1.1071    1.5213   -0.5943 H        1 ZINC000003830716    0.0700
36     H36    -0.3713    1.3606   -1.5724 H        1 ZINC000003830716    0.0800
37     H37    -0.4885    1.5429    0.1943 H        1 ZINC000003830716    0.0700
38     H38    -0.8555   -0.8139   -0.4835 H        1 ZINC000003830716    0.0700
39     H39     0.7401   -0.8355   -1.2721 H        1 ZINC000003830716    0.0700
40     H40     3.8381   -3.8647    2.6292 H        1 ZINC000003830716    0.1300
41     H41     6.1405   -2.9979    2.7336 H        1 ZINC000003830716    0.1200
42     H42     6.5482   -0.5716    2.6342 H        1 ZINC000003830716    0.1200
43     H43     4.6536    0.9879    2.4296 H        1 ZINC000003830716    0.1200
44     H44     2.3516    0.1208    2.3206 H        1 ZINC000003830716    0.1300
45     H45     1.2143   -2.1647    4.5183 H        1 ZINC000003830716    0.0900
46     H46     0.6751   -0.8100    3.4961 H        1 ZINC000003830716    0.0800
47     H47    -1.2567   -2.0993    4.3827 H        1 ZINC000003830716    0.0900
48     H48    -1.1668   -2.2038    2.6083 H        1 ZINC000003830716    0.0300
49     H49    -2.5026   -4.0338    4.5253 H        1 ZINC000003830716    0.0800
50     H50    -2.4669   -4.4283    2.7900 H        1 ZINC000003830716    0.0300
51     H51    -1.3412   -6.5509    3.2513 H        1 ZINC000003830716    0.0800
52     H52    -1.2143   -6.1444    4.9796 H        1 ZINC000003830716    0.1000
53     H53    -0.9537   -8.0777    4.5678 H        1 ZINC000003830716    0.1300
54     H54    -0.7583  -10.4853    5.0453 H        1 ZINC000003830716    0.1300
55     H55    -2.7859  -11.8469    5.3583 H        1 ZINC000003830716    0.1200
56     H56    -5.0089  -10.8006    5.1947 H        1 ZINC000003830716    0.1200
57     H57    -5.2042   -8.3920    4.7218 H        1 ZINC000003830716    0.1200
58     H58    -5.4118   -5.0485    4.3180 H        1 ZINC000003830716    0.1200
59     H59    -6.4611   -3.9134    6.2348 H        1 ZINC000003830716    0.1200
60     H60    -5.4913   -4.1477    8.4860 H        1 ZINC000003830716    0.1200
61     H61    -3.4728   -5.5176    8.8205 H        1 ZINC000003830716    0.1300
62     H62    -2.4262   -6.6564    6.9045 H        1 ZINC000003830716    0.1300
63     H63     0.1455   -5.6000    2.5719 H        1 ZINC000003830716    0.0800
64     H64    -0.3585   -4.2222    1.5642 H        1 ZINC000003830716    0.0600
65     H65     2.1091   -4.3905    1.6440 H        1 ZINC000003830716    0.0800
66     H66     2.0639   -4.2860    3.4210 H        1 ZINC000003830716    0.0900
@<TRIPOS>BOND
1     1     2     1
2     1     35    1
3     1     36    1
4     1     37    1
5     2     3     1
6     2     38    1
7     2     39    1
8     3     4     1
9     4     5     2
10    4     6     1
11    6     34    1
12    6     7     1
13    6     13    1
14    7     12    ar
15    7     8     ar
16    8     9     ar
17    8     40    1
18    9     10    ar
19    9     41    1
20    10    11    ar
21    10    42    1
22    11    12    ar
23    11    43    1
24    12    44    1
25    13    14    1
26    13    45    1
27    13    46    1
28    14    15    1
29    14    47    1
30    14    48    1
31    15    16    1
32    15    33    1
33    16    17    1
34    16    49    1
35    16    50    1
36    17    18    1
37    17    51    1
38    17    52    1
39    18    19    1
40    18    21    1
41    18    27    1
42    19    20    3
43    21    26    ar
44    21    22    ar
45    22    23    ar
46    22    53    1
47    23    24    ar
48    23    54    1
49    24    25    ar
50    24    55    1
51    25    26    ar
52    25    56    1
53    26    57    1
54    27    32    ar
55    27    28    ar
56    28    29    ar
57    28    58    1
58    29    30    ar
59    29    59    1
60    30    31    ar
61    30    60    1
62    31    32    ar
63    31    61    1
64    32    62    1
65    33    34    1
66    33    63    1
67    33    64    1
68    34    65    1
69    34    66    1
@<TRIPOS>SUBSTRUCTURE
1   ZINC000003830716 1     RESIDUE    1   A     ZIN   1
