@<TRIPOS>MOLECULE
ZINC000000020241
32   33    0    0    0
SMALL
NO_CHARGES


@<TRIPOS>ATOM
1 C1            -0.1948     1.4947    -0.0203 C.3
2 C2            -0.2052    -0.0123    -0.0217 C.ar
3 C3            -0.3433    -0.7008    -1.2128 C.ar
4 C4            -0.3538    -2.0839    -1.2186 C.ar
5 C5            -0.2264    -2.7818    -0.0340 C.ar
6 C6            -0.0870    -2.0931     1.1647 C.ar
7 N7             0.0422    -2.7962     2.3653 N.pl3
8 C8            -0.0407    -4.1815     2.3706 C.ar
9 C9            -1.2258    -4.8092     2.7340 C.ar
10 C10           -1.3055    -6.1866     2.7385 C.ar
11 C11           -0.2084    -6.9553     2.3817 C.ar
12 C12            0.9756    -6.3530     2.0187 C.ar
13 C13            1.0722    -4.9576     2.0027 C.ar
14 C14            2.3329    -4.3072     1.6157 C.2
15 O15            3.2690    -4.9813     1.2076 O.co2
16 O16            2.4459    -3.0919     1.7017 O.co2
17 C17           -0.0712    -0.7041     1.1662 C.ar
18 C18            0.0797     0.0471     2.4639 C.3
19 H19            0.8284     1.8511    -0.1391 H
20 H20           -0.8059     1.8630    -0.8443 H
21 H21           -0.5994     1.8599     0.9236 H
22 H22           -0.4434    -0.1574    -2.1407 H
23 H23           -0.4621    -2.6186    -2.1506 H
24 H24           -0.2354    -3.8617    -0.0391 H
25 H25            0.1897    -2.3160     3.1951 H
26 H26           -2.0854    -4.2183     3.0137 H
27 H27           -2.2291    -6.6693     3.0222 H
28 H28           -0.2825    -8.0327     2.3889 H
29 H29            1.8271    -6.9571     1.7422 H
30 H30            1.1376     0.2168     2.6646 H
31 H31           -0.4345     1.0055     2.3908 H
32 H32           -0.3548    -0.5374     3.2748 H
@<TRIPOS>BOND
1    1    2 1
2    1   19 1
3    1   20 1
4    1   21 1
5    2   17 ar
6    2    3 ar
7    3    4 ar
8    3   22 1
9    4    5 ar
10    4   23 1
11    5    6 ar
12    5   24 1
13    6    7 1
14    6   17 ar
15    7    8 1
16    7   25 1
17    8   13 ar
18    8    9 ar
19    9   10 ar
20    9   26 1
21   10   11 ar
22   10   27 1
23   11   12 ar
24   11   28 1
25   12   13 ar
26   12   29 1
27   13   14 1
28   14   15 ar
29   14   16 ar
30   17   18 1
31   18   30 1
32   18   31 1
33   18   32 1


