@<TRIPOS>MOLECULE
ZINC000004097343
87    93    1     0     0
SMALL
USER_CHARGES
@<TRIPOS>ATOM
1      C1      1.8028   -1.3559   -2.4141 C.3      1 ZINC000004097343   -0.1500
2      C2      1.8056   -2.8608   -2.6900 C.3      1 ZINC000004097343   -0.1300
3      C3      2.3788   -3.1227   -4.0842 C.3      1 ZINC000004097343    0.1800
4      H4      3.3646   -2.6644   -4.1637 H        1 ZINC000004097343    0.1100
5      C5      2.4978   -4.6310   -4.3117 C.3      1 ZINC000004097343   -0.1600
6      N6      1.4889   -2.5451   -5.0945 N.am     1 ZINC000004097343   -0.4400
7      N7      0.1421   -2.8743   -5.3005 N.2      1 ZINC000004097343   -0.2600
8      C8     -0.3035   -2.1547   -6.2796 C.2      1 ZINC000004097343    0.2500
9      N9      0.7131   -1.3495   -6.7362 N.am     1 ZINC000004097343   -0.5000
10     C10     0.6206   -0.4266   -7.7898 C.ar     1 ZINC000004097343    0.1300
11     C11     1.7302    0.3235   -8.1548 C.ar     1 ZINC000004097343   -0.1100
12     C12     1.6397    1.2309   -9.1913 C.ar     1 ZINC000004097343   -0.1100
13     C13     0.4383    1.3933   -9.8690 C.ar     1 ZINC000004097343    0.1000
14     N14     0.3463    2.3121  -10.9194 N.3      1 ZINC000004097343   -0.4900
15     C15     0.7386    3.6577  -10.4778 C.3      1 ZINC000004097343    0.0600
16     C16     0.7010    4.6146  -11.6717 C.3      1 ZINC000004097343    0.0500
17     N17    -0.6520    4.6252  -12.2452 N.3      1 ZINC000004097343   -0.4900
18     C18    -0.7440    5.5446  -13.2962 C.ar     1 ZINC000004097343    0.0700
19     C19     0.3672    6.2908  -13.6657 C.ar     1 ZINC000004097343   -0.1300
20     C20     0.2757    7.1975  -14.7034 C.ar     1 ZINC000004097343   -0.1200
21     C21    -0.9259    7.3633  -15.3761 C.ar     1 ZINC000004097343    0.1100
22     O22    -1.0153    8.2568  -16.3975 O.3      1 ZINC000004097343   -0.3000
23     C23    -2.2831    8.3761  -17.0460 C.3      1 ZINC000004097343    0.0700
24     C24    -2.1899    9.4209  -18.1598 C.3      1 ZINC000004097343    0.0400
25     H25    -1.3746    9.1822  -18.8428 H        1 ZINC000004097343    0.1000
26     C26    -3.5325    9.5261  -18.9255 C.3      1 ZINC000004097343    0.0200
27     O27    -3.4791   10.8830  -19.4278 O.3      1 ZINC000004097343   -0.3500
28     C28    -2.8308   11.6346  -18.3880 C.3      1 ZINC000004097343    0.2900
29     C29    -3.8852   12.2912  -17.4946 C.3      1 ZINC000004097343    0.1100
30     N30    -3.2226   12.9977  -16.3955 N.pl3    1 ZINC000004097343   -0.3800
31     C31    -3.3853   14.2872  -16.0524 C.2      1 ZINC000004097343    0.2400
32     N32    -2.6196   14.5324  -15.0202 N.2      1 ZINC000004097343   -0.5300
33     C33    -1.9561   13.4290  -14.6775 C.2      1 ZINC000004097343    0.1900
34     N34    -2.2958   12.4607  -15.4871 N.2      1 ZINC000004097343   -0.2700
35     C35    -1.9550   12.6964  -19.0016 C.ar     1 ZINC000004097343   -0.0900
36     C36    -2.2470   14.0325  -18.8032 C.ar     1 ZINC000004097343   -0.0800
37     C37    -1.4443   15.0071  -19.3661 C.ar     1 ZINC000004097343   -0.1000
38     C38    -0.3478   14.6453  -20.1281 C.ar     1 ZINC000004097343   -0.0100
39     Cl39    0.6605   15.8693  -20.8344 Cl       1 ZINC000004097343   -0.0500
40     C40    -0.0546   13.3079  -20.3266 C.ar     1 ZINC000004097343   -0.1100
41     C41    -0.8551   12.3333  -19.7588 C.ar     1 ZINC000004097343    0.0100
42     Cl42   -0.4877   10.6549  -20.0069 Cl       1 ZINC000004097343   -0.0400
43     O43    -2.0211   10.7418  -17.6067 O.3      1 ZINC000004097343   -0.3200
44     C44    -2.0363    6.6181  -15.0079 C.ar     1 ZINC000004097343   -0.1800
45     C45    -1.9451    5.7071  -13.9739 C.ar     1 ZINC000004097343   -0.1000
46     C46    -1.0443    3.2796  -12.6867 C.3      1 ZINC000004097343    0.0600
47     C47    -1.0067    2.3227  -11.4929 C.3      1 ZINC000004097343    0.0500
48     C48    -0.6718    0.6426   -9.5036 C.ar     1 ZINC000004097343   -0.1400
49     C49    -0.5790   -0.2684   -8.4704 C.ar     1 ZINC000004097343   -0.1100
50     C50     1.8124   -1.5937   -5.9950 C.2      1 ZINC000004097343    0.6500
51     O51     2.8999   -1.0594   -6.1202 O.2      1 ZINC000004097343   -0.5400
52     H52     2.8229   -0.9753   -2.4650 H        1 ZINC000004097343    0.0600
53     H53     1.1890   -0.8509   -3.1601 H        1 ZINC000004097343    0.0500
54     H54     1.3945   -1.1693   -1.4209 H        1 ZINC000004097343    0.0600
55     H55     2.4194   -3.3658   -1.9441 H        1 ZINC000004097343    0.0800
56     H56     0.7855   -3.2414   -2.6392 H        1 ZINC000004097343    0.0800
57     H57     3.1599   -5.0607   -3.5600 H        1 ZINC000004097343    0.0800
58     H58     1.5120   -5.0893   -4.2321 H        1 ZINC000004097343    0.0700
59     H59     2.9061   -4.8176   -5.3049 H        1 ZINC000004097343    0.0600
60     H60    -1.3087   -2.1825   -6.6735 H        1 ZINC000004097343    0.2300
61     H61     2.6643    0.1975   -7.6275 H        1 ZINC000004097343    0.1600
62     H62     2.5030    1.8147   -9.4749 H        1 ZINC000004097343    0.1300
63     H63     0.0460    4.0052   -9.7112 H        1 ZINC000004097343    0.0600
64     H64     1.7484    3.6262  -10.0687 H        1 ZINC000004097343    0.0900
65     H65     0.9636    5.6194  -11.3408 H        1 ZINC000004097343    0.0900
66     H66     1.4134    4.2823  -12.4267 H        1 ZINC000004097343    0.0600
67     H67     1.3028    6.1623  -13.1416 H        1 ZINC000004097343    0.1300
68     H68     1.1399    7.7779  -14.9910 H        1 ZINC000004097343    0.1300
69     H69    -2.5647    7.4137  -17.4732 H        1 ZINC000004097343    0.0800
70     H70    -3.0349    8.6852  -16.3198 H        1 ZINC000004097343    0.0700
71     H71    -3.5719    8.8080  -19.7446 H        1 ZINC000004097343    0.1200
72     H72    -4.3781    9.3928  -18.2507 H        1 ZINC000004097343    0.0900
73     H73    -4.4691   12.9996  -18.0822 H        1 ZINC000004097343    0.1200
74     H74    -4.5454   11.5249  -17.0883 H        1 ZINC000004097343    0.1000
75     H75    -4.0344   14.9971  -16.5434 H        1 ZINC000004097343    0.2200
76     H76    -1.2545   13.3469  -13.8604 H        1 ZINC000004097343    0.2200
77     H77    -3.1030   14.3154  -18.2084 H        1 ZINC000004097343    0.1400
78     H78    -1.6735   16.0511  -19.2114 H        1 ZINC000004097343    0.1500
79     H79     0.8013   13.0250  -20.9214 H        1 ZINC000004097343    0.1500
80     H80    -2.9715    6.7478  -15.5322 H        1 ZINC000004097343    0.1300
81     H81    -2.8098    5.1269  -13.6873 H        1 ZINC000004097343    0.1300
82     H82    -2.0541    3.3111  -13.0958 H        1 ZINC000004097343    0.0900
83     H83    -0.3517    2.9321  -13.4533 H        1 ZINC000004097343    0.0500
84     H84    -1.2693    1.3179  -11.8238 H        1 ZINC000004097343    0.0900
85     H85    -1.7191    2.6550  -10.7378 H        1 ZINC000004097343    0.0600
86     H86    -1.6062    0.7688  -10.0301 H        1 ZINC000004097343    0.1400
87     H87    -1.4421   -0.8522   -8.1863 H        1 ZINC000004097343    0.1300
@<TRIPOS>BOND
1     1     2     1
2     1     52    1
3     1     53    1
4     1     54    1
5     2     3     1
6     2     55    1
7     2     56    1
8     3     4     1
9     3     5     1
10    3     6     1
11    5     57    1
12    5     58    1
13    5     59    1
14    6     50    am
15    6     7     1
16    7     8     2
17    8     9     1
18    8     60    1
19    9     10    1
20    9     50    am
21    10    49    ar
22    10    11    ar
23    11    12    ar
24    11    61    1
25    12    13    ar
26    12    62    1
27    13    14    1
28    13    48    ar
29    14    47    1
30    14    15    1
31    15    16    1
32    15    63    1
33    15    64    1
34    16    17    1
35    16    65    1
36    16    66    1
37    17    18    1
38    17    46    1
39    18    45    ar
40    18    19    ar
41    19    20    ar
42    19    67    1
43    20    21    ar
44    20    68    1
45    21    22    1
46    21    44    ar
47    22    23    1
48    23    24    1
49    23    69    1
50    23    70    1
51    24    25    1
52    24    43    1
53    24    26    1
54    26    27    1
55    26    71    1
56    26    72    1
57    27    28    1
58    28    29    1
59    28    35    1
60    28    43    1
61    29    30    1
62    29    73    1
63    29    74    1
64    30    34    1
65    30    31    1
66    31    32    2
67    31    75    1
68    32    33    1
69    33    34    2
70    33    76    1
71    35    41    ar
72    35    36    ar
73    36    37    ar
74    36    77    1
75    37    38    ar
76    37    78    1
77    38    39    1
78    38    40    ar
79    40    41    ar
80    40    79    1
81    41    42    1
82    44    45    ar
83    44    80    1
84    45    81    1
85    46    47    1
86    46    82    1
87    46    83    1
88    47    84    1
89    47    85    1
90    48    49    ar
91    48    86    1
92    49    87    1
93    50    51    2
@<TRIPOS>SUBSTRUCTURE
1   ZINC000004097343 1     RESIDUE    1   A     ZIN   1
