@<TRIPOS>MOLECULE
ZINC000003979899
35    35    1     0     0
SMALL
USER_CHARGES
@<TRIPOS>ATOM
1      C1     -0.0187    1.5258    0.0104 C.3      1 ZINC000003979899   -0.1500
2      C2      0.0021   -0.0041    0.0020 C.3      1 ZINC000003979899   -0.1300
3      C3      0.7421   -0.5109    1.2415 C.3      1 ZINC000003979899   -0.1100
4      C4      0.7628   -2.0407    1.2331 C.3      1 ZINC000003979899   -0.1000
5      H5      1.1783   -2.4181    0.2987 H        1 ZINC000003979899    0.0900
6      C6     -0.6513   -2.6147    1.4816 C.3      1 ZINC000003979899   -0.1500
7      C7     -0.4094   -3.8415    2.3331 C.2      1 ZINC000003979899    0.5300
8      O8     -1.2146   -4.7298    2.5162 O.2      1 ZINC000003979899   -0.5200
9      N9      0.8280   -3.8041    2.8568 N.am     1 ZINC000003979899   -0.6100
10     C10     1.3902   -4.8422    3.7243 C.3      1 ZINC000003979899    0.1400
11     H11     2.4061   -4.5676    4.0082 H        1 ZINC000003979899    0.1100
12     C12     0.5286   -4.9782    4.9813 C.3      1 ZINC000003979899   -0.1400
13     C13     0.6061   -3.6849    5.7951 C.3      1 ZINC000003979899   -0.1500
14     C14     1.4127   -6.1558    2.9861 C.2      1 ZINC000003979899    0.5100
15     N15     1.8916   -7.2608    3.5912 N.am     1 ZINC000003979899   -0.8500
16     O16     0.9997   -6.2187    1.8475 O.2      1 ZINC000003979899   -0.5200
17     C17     1.5444   -2.5897    2.4473 C.3      1 ZINC000003979899    0.1100
18     H18     1.0039    1.9031    0.0027 H        1 ZINC000003979899    0.0500
19     H19    -0.5459    1.8868   -0.8726 H        1 ZINC000003979899    0.0500
20     H20    -0.5289    1.8773    0.9072 H        1 ZINC000003979899    0.0500
21     H21    -1.0205   -0.3814    0.0098 H        1 ZINC000003979899    0.0600
22     H22     0.5123   -0.3556   -0.8948 H        1 ZINC000003979899    0.0600
23     H23     1.7647   -0.1336    1.2338 H        1 ZINC000003979899    0.0700
24     H24     0.2319   -0.1594    2.1383 H        1 ZINC000003979899    0.0700
25     H25    -1.2670   -1.8931    2.0186 H        1 ZINC000003979899    0.1000
26     H26    -1.1218   -2.8918    0.5383 H        1 ZINC000003979899    0.1000
27     H27    -0.5061   -5.1653    4.6940 H        1 ZINC000003979899    0.0900
28     H28     0.8942   -5.8094    5.5842 H        1 ZINC000003979899    0.0800
29     H29    -0.0078   -3.7818    6.6906 H        1 ZINC000003979899    0.0600
30     H30     1.6408   -3.4979    6.0824 H        1 ZINC000003979899    0.0600
31     H31     0.2405   -2.8538    5.1921 H        1 ZINC000003979899    0.0600
32     H32     2.2219   -7.2105    4.5018 H        1 ZINC000003979899    0.4000
33     H33     1.9061   -8.1063    3.1160 H        1 ZINC000003979899    0.4000
34     H34     2.5671   -2.8339    2.1598 H        1 ZINC000003979899    0.0800
35     H35     1.5435   -1.8601    3.2570 H        1 ZINC000003979899    0.0800
@<TRIPOS>BOND
1     1     2     1
2     1     18    1
3     1     19    1
4     1     20    1
5     2     3     1
6     2     21    1
7     2     22    1
8     3     4     1
9     3     23    1
10    3     24    1
11    4     5     1
12    4     17    1
13    4     6     1
14    6     7     1
15    6     25    1
16    6     26    1
17    7     8     2
18    7     9     am
19    9     10    1
20    9     17    1
21    10    11    1
22    10    12    1
23    10    14    1
24    12    13    1
25    12    27    1
26    12    28    1
27    13    29    1
28    13    30    1
29    13    31    1
30    14    15    am
31    14    16    2
32    15    32    1
33    15    33    1
34    17    34    1
35    17    35    1
@<TRIPOS>SUBSTRUCTURE
1   ZINC000003979899 1     RESIDUE    1   A     ZIN   1
