@<TRIPOS>MOLECULE
ZINC000000601305
40    42    1     0     0
SMALL
USER_CHARGES
@<TRIPOS>ATOM
1      C1     -0.0187    1.5258    0.0104 C.3      1 ZINC000000601305   -0.1600
2      C2      0.0021   -0.0041    0.0020 C.3      1 ZINC000000601305    0.1600
3      H3     -1.0150   -0.3955    0.0221 H        1 ZINC000000601305    0.0800
4      C4      0.7480   -0.5206   -1.2393 C.3      1 ZINC000000601305   -0.0800
5      C5      1.9154   -1.3037   -0.6821 C.ar     1 ZINC000000601305   -0.1600
6      C6      2.9285   -1.9950   -1.3175 C.ar     1 ZINC000000601305   -0.0600
7      C7      3.8982   -2.6437   -0.5754 C.ar     1 ZINC000000601305   -0.1600
8      C8      3.8522   -2.5986    0.8057 C.ar     1 ZINC000000601305   -0.0800
9      C9      2.8436   -1.9091    1.4445 C.ar     1 ZINC000000601305   -0.1600
10     C10     1.8601   -1.2523    0.7022 C.ar     1 ZINC000000601305    0.2000
11     N11     0.7637   -0.5084    1.1478 N.pl3    1 ZINC000000601305   -0.4300
12     N12     0.4427   -0.2783    2.4920 N.am     1 ZINC000000601305   -0.5000
13     C13     1.1596    0.6053    3.2143 C.2      1 ZINC000000601305    0.5600
14     O14     2.0847    1.2026    2.6994 O.2      1 ZINC000000601305   -0.5000
15     C15     0.8210    0.8480    4.6322 C.ar     1 ZINC000000601305   -0.1400
16     C16    -0.2372    0.1594    5.2277 C.ar     1 ZINC000000601305   -0.0200
17     C17    -0.5485    0.3902    6.5513 C.ar     1 ZINC000000601305   -0.1300
18     C18     0.1861    1.3033    7.2892 C.ar     1 ZINC000000601305    0.0700
19     Cl19   -0.2121    1.5889    8.9546 Cl       1 ZINC000000601305   -0.0200
20     C20     1.2376    1.9894    6.7038 C.ar     1 ZINC000000601305   -0.6800
21     S21     2.1668    3.1488    7.6510 S.o2     1 ZINC000000601305    2.7000
22     N22     1.1424    4.3862    8.0532 N.am     1 ZINC000000601305   -1.2500
23     O23     2.5035    2.4953    8.8671 O.2      1 ZINC000000601305   -0.9400
24     O24     3.1364    3.7005    6.7709 O.2      1 ZINC000000601305   -0.9500
25     C25     1.5619    1.7629    5.3830 C.ar     1 ZINC000000601305    0.0600
26     H26     1.0039    1.9031    0.0027 H        1 ZINC000000601305    0.0700
27     H27    -0.5459    1.8868   -0.8726 H        1 ZINC000000601305    0.0700
28     H28    -0.5289    1.8773    0.9072 H        1 ZINC000000601305    0.0500
29     H29     0.1010   -1.1701   -1.8288 H        1 ZINC000000601305    0.0900
30     H30     1.1035    0.3138   -1.8439 H        1 ZINC000000601305    0.0900
31     H31     2.9630   -2.0293   -2.3964 H        1 ZINC000000601305    0.1200
32     H32     4.6898   -3.1840   -1.0733 H        1 ZINC000000601305    0.1200
33     H33     4.6092   -3.1050    1.3862 H        1 ZINC000000601305    0.1200
34     H34     2.8134   -1.8778    2.5237 H        1 ZINC000000601305    0.1100
35     H35    -0.2955   -0.7550    2.9028 H        1 ZINC000000601305    0.4100
36     H36    -0.8112   -0.5524    4.6530 H        1 ZINC000000601305    0.1500
37     H37    -1.3670   -0.1420    7.0131 H        1 ZINC000000601305    0.1600
38     H38     0.2175    4.3644    7.7614 H        1 ZINC000000601305    0.4200
39     H39     1.4671    5.1327    8.5805 H        1 ZINC000000601305    0.4300
40     H40     2.3819    2.2983    4.9277 H        1 ZINC000000601305    0.1700
@<TRIPOS>BOND
1     1     2     1
2     1     26    1
3     1     27    1
4     1     28    1
5     2     3     1
6     2     11    1
7     2     4     1
8     4     5     1
9     4     29    1
10    4     30    1
11    5     10    ar
12    5     6     ar
13    6     7     ar
14    6     31    1
15    7     8     ar
16    7     32    1
17    8     9     ar
18    8     33    1
19    9     10    ar
20    9     34    1
21    10    11    1
22    11    12    1
23    12    13    am
24    12    35    1
25    13    14    2
26    13    15    1
27    15    25    ar
28    15    16    ar
29    16    17    ar
30    16    36    1
31    17    18    ar
32    17    37    1
33    18    19    1
34    18    20    ar
35    20    21    1
36    20    25    ar
37    21    22    am
38    21    23    2
39    21    24    2
40    22    38    1
41    22    39    1
42    25    40    1
@<TRIPOS>SUBSTRUCTURE
1   ZINC000000601305 1     RESIDUE    1   A     ZIN   1
