@<TRIPOS>MOLECULE
ZINC000242437513
81    83    1     0     0
SMALL
USER_CHARGES
@<TRIPOS>ATOM
1      C1      1.1495   -2.7992    2.8725 C.3      1 ZINC000242437513   -0.0600
2      N2      0.3773   -3.7517    2.0635 N.4      1 ZINC000242437513   -0.5100
3      H3      0.1323   -4.5513    2.6281 H        1 ZINC000242437513    0.4300
4      H4     -0.4638   -3.3051    1.7299 H        1 ZINC000242437513    0.4300
5      C5      1.1862   -4.1902    0.9184 C.3      1 ZINC000242437513    0.0300
6      H6      2.1342   -4.5921    1.2759 H        1 ZINC000242437513    0.1700
7      C7      1.4527   -2.9988   -0.0038 C.3      1 ZINC000242437513   -0.1900
8      C8      0.4315   -5.2741    0.1461 C.3      1 ZINC000242437513    0.0700
9      H9      0.1645   -6.0845    0.8243 H        1 ZINC000242437513    0.1100
10     C10     1.3231   -5.8179   -0.9733 C.3      1 ZINC000242437513   -0.1700
11     C11     0.5399   -6.8590   -1.7790 C.3      1 ZINC000242437513   -0.1500
12     C12    -0.7408   -6.2138   -2.3175 C.3      1 ZINC000242437513    0.0100
13     H13    -1.3315   -6.9624   -2.8456 H        1 ZINC000242437513    0.1700
14     N14    -0.3917   -5.1243   -3.2389 N.4      1 ZINC000242437513   -0.6400
15     H15     0.1114   -5.5000   -4.0287 H        1 ZINC000242437513    0.4500
16     H16    -1.2348   -4.6731   -3.5610 H        1 ZINC000242437513    0.4300
17     H17     0.1879   -4.4515   -2.7599 H        1 ZINC000242437513    0.4300
18     C18    -1.5527   -5.6547   -1.1462 C.3      1 ZINC000242437513    0.2300
19     H19    -1.8458   -6.4701   -0.4850 H        1 ZINC000242437513    0.1100
20     O20    -2.7219   -5.0021   -1.6453 O.3      1 ZINC000242437513   -0.3500
21     C21    -3.6870   -4.6890   -0.6390 C.3      1 ZINC000242437513    0.0800
22     H22    -3.3675   -5.1097    0.3144 H        1 ZINC000242437513    0.1300
23     C23    -5.0421   -5.2824   -1.0298 C.3      1 ZINC000242437513    0.0300
24     H24    -5.7782   -5.0435   -0.2623 H        1 ZINC000242437513    0.1800
25     N25    -4.9202   -6.7410   -1.1545 N.4      1 ZINC000242437513   -0.6400
26     H26    -4.5304   -7.1198   -0.3044 H        1 ZINC000242437513    0.4500
27     H27    -5.8321   -7.1422   -1.3144 H        1 ZINC000242437513    0.4600
28     H28    -4.3145   -6.9628   -1.9303 H        1 ZINC000242437513    0.4400
29     C29    -5.4906   -4.6918   -2.3681 C.3      1 ZINC000242437513   -0.1700
30     C30    -5.6175   -3.1726   -2.2382 C.3      1 ZINC000242437513    0.0400
31     H31    -6.3537   -2.9338   -1.4707 H        1 ZINC000242437513    0.1700
32     N32    -6.0482   -2.6056   -3.5231 N.4      1 ZINC000242437513   -0.6300
33     H33    -6.9418   -2.9969   -3.7808 H        1 ZINC000242437513    0.4500
34     H34    -6.1318   -1.6037   -3.4374 H        1 ZINC000242437513    0.4500
35     H35    -5.3667   -2.8267   -4.2336 H        1 ZINC000242437513    0.4400
36     C36    -4.2625   -2.5792   -1.8474 C.3      1 ZINC000242437513    0.0400
37     H37    -4.3529   -1.4969   -1.7549 H        1 ZINC000242437513    0.1300
38     O38    -3.2973   -2.8923   -2.8537 O.3      1 ZINC000242437513   -0.3500
39     C39    -2.5338   -1.7684   -3.2965 C.3      1 ZINC000242437513    0.2200
40     H40    -2.0448   -1.3016   -2.4415 H        1 ZINC000242437513    0.0900
41     O41    -3.4001   -0.8218   -3.9254 O.3      1 ZINC000242437513   -0.3900
42     C42    -2.7389    0.3588   -4.3849 C.3      1 ZINC000242437513    0.0500
43     C43    -1.6882   -0.0211   -5.4315 C.3      1 ZINC000242437513    0.0900
44     C44    -0.9362    1.2336   -5.8799 C.3      1 ZINC000242437513   -0.2100
45     O45    -2.3313   -0.6206   -6.5580 O.3      1 ZINC000242437513   -0.5400
46     C46    -0.7009   -1.0165   -4.8145 C.3      1 ZINC000242437513    0.0400
47     H47    -0.1743   -0.5420   -3.9864 H        1 ZINC000242437513    0.1700
48     N48     0.2680   -1.4430   -5.8330 N.4      1 ZINC000242437513   -0.5000
49     H49    -0.2059   -1.9787   -6.5446 H        1 ZINC000242437513    0.4500
50     H50     0.6950   -0.6305   -6.2521 H        1 ZINC000242437513    0.4500
51     C51     1.3053   -2.2724   -5.2051 C.3      1 ZINC000242437513   -0.0500
52     C52    -1.4747   -2.2339   -4.2991 C.3      1 ZINC000242437513    0.0800
53     H53    -0.7863   -2.9223   -3.8090 H        1 ZINC000242437513    0.0500
54     O54    -2.1109   -2.8943   -5.3951 O.3      1 ZINC000242437513   -0.5100
55     C55    -3.8139   -3.1698   -0.5092 C.3      1 ZINC000242437513    0.1000
56     H56    -4.5501   -2.9310    0.2584 H        1 ZINC000242437513    0.1200
57     O57    -2.5483   -2.6155   -0.1442 O.3      1 ZINC000242437513   -0.5400
58     O58    -0.7558   -4.7162   -0.4207 O.3      1 ZINC000242437513   -0.3800
59     H59     2.0581   -3.2816    3.2329 H        1 ZINC000242437513    0.1400
60     H60     1.4142   -1.9354    2.2626 H        1 ZINC000242437513    0.1300
61     H61     0.5493   -2.4739    3.7222 H        1 ZINC000242437513    0.1400
62     H62     1.9442   -2.2058    0.5599 H        1 ZINC000242437513    0.1000
63     H63     2.0960   -3.3124   -0.8259 H        1 ZINC000242437513    0.1000
64     H64     0.5079   -2.6293   -0.4023 H        1 ZINC000242437513    0.0900
65     H65     1.6238   -5.0007   -1.6290 H        1 ZINC000242437513    0.0800
66     H66     2.2085   -6.2833   -0.5402 H        1 ZINC000242437513    0.1400
67     H67     1.1495   -7.2096   -2.6118 H        1 ZINC000242437513    0.1300
68     H68     0.2818   -7.6997   -1.1351 H        1 ZINC000242437513    0.1300
69     H69    -4.7544   -4.9306   -3.1356 H        1 ZINC000242437513    0.1200
70     H70    -6.4559   -5.1145   -2.6464 H        1 ZINC000242437513    0.1300
71     H71    -3.4690    1.0340   -4.8312 H        1 ZINC000242437513    0.1400
72     H72    -2.2523    0.8535   -3.5443 H        1 ZINC000242437513    0.0900
73     H73    -0.4442    1.6889   -5.0204 H        1 ZINC000242437513    0.0900
74     H74    -0.1884    0.9622   -6.6250 H        1 ZINC000242437513    0.0800
75     H75    -1.6403    1.9436   -6.3137 H        1 ZINC000242437513    0.1100
76     H76    -2.9744   -0.0461   -6.9955 H        1 ZINC000242437513    0.4200
77     H77     0.8608   -3.2013   -4.8478 H        1 ZINC000242437513    0.0900
78     H78     2.0814   -2.4987   -5.9363 H        1 ZINC000242437513    0.1500
79     H79     1.7433   -1.7326   -4.3656 H        1 ZINC000242437513    0.1300
80     H80    -2.6201   -3.6762   -5.1412 H        1 ZINC000242437513    0.3900
81     H81    -2.5543   -1.6538   -0.0440 H        1 ZINC000242437513    0.4000
@<TRIPOS>BOND
1     1     2     1
2     1     59    1
3     1     60    1
4     1     61    1
5     2     3     1
6     2     4     1
7     2     5     1
8     5     6     1
9     5     7     1
10    5     8     1
11    7     62    1
12    7     63    1
13    7     64    1
14    8     9     1
15    8     58    1
16    8     10    1
17    10    11    1
18    10    65    1
19    10    66    1
20    11    12    1
21    11    67    1
22    11    68    1
23    12    13    1
24    12    14    1
25    12    18    1
26    14    15    1
27    14    16    1
28    14    17    1
29    18    19    1
30    18    20    1
31    18    58    1
32    20    21    1
33    21    22    1
34    21    55    1
35    21    23    1
36    23    24    1
37    23    25    1
38    23    29    1
39    25    26    1
40    25    27    1
41    25    28    1
42    29    30    1
43    29    69    1
44    29    70    1
45    30    31    1
46    30    32    1
47    30    36    1
48    32    33    1
49    32    34    1
50    32    35    1
51    36    37    1
52    36    38    1
53    36    55    1
54    38    39    1
55    39    40    1
56    39    52    1
57    39    41    1
58    41    42    1
59    42    43    1
60    42    71    1
61    42    72    1
62    43    44    1
63    43    45    1
64    43    46    1
65    44    73    1
66    44    74    1
67    44    75    1
68    45    76    1
69    46    47    1
70    46    48    1
71    46    52    1
72    48    49    1
73    48    50    1
74    48    51    1
75    51    77    1
76    51    78    1
77    51    79    1
78    52    53    1
79    52    54    1
80    54    80    1
81    55    56    1
82    55    57    1
83    57    81    1
@<TRIPOS>SUBSTRUCTURE
1   ZINC000242437513 1     RESIDUE    1   A     ZIN   1
