@<TRIPOS>MOLECULE
ZINC000000001792
35   35    0    0    0
SMALL
USER_CHARGES
NO_NAME
@<TRIPOS>ATOM
1 C1       -2.4310    -0.1613     0.8398 C.3    1 <0>       0.0900
2 N2       -1.1863    -0.8039     0.4112 N.am   1 <0>      -0.5900
3 C3       -0.0070    -0.7688     1.2797 C.3    1 <0>       0.0700
4 C4       -1.1260    -1.4275    -0.7822 C.2    1 <0>       0.6400
5 O5       -2.1042    -1.4566    -1.5025 O.2    1 <0>      -0.5500
6 O6        0.0183    -2.0183    -1.1762 O.3    1 <0>      -0.3000
7 C7       -0.0173    -2.7167    -2.3419 C.ar   1 <0>       0.1300
8 C8        0.0063    -2.0450    -3.5551 C.ar   1 <0>      -0.0700
9 C9       -0.0301    -2.7572    -4.7386 C.ar   1 <0>      -0.0800
10 C10      -0.0900    -4.1381    -4.7141 C.ar   1 <0>      -0.1000
11 C11      -0.1142    -4.8101    -3.5057 C.ar   1 <0>      -0.0300
12 N12      -0.1753    -6.2066    -3.4842 N.4    1 <0>      -0.2100
13 C13      -0.2037    -6.7167    -4.8615 C.3    1 <0>      -0.0500
14 C14       1.0050    -6.7378    -2.7896 C.3    1 <0>      -0.0500
15 C15      -1.3915    -6.6327    -2.7791 C.3    1 <0>      -0.0500
16 C16      -0.0718    -4.1029    -2.3200 C.ar   1 <0>      -0.1000
17 H17      -2.4395     0.8753     0.5030 H      1 <0>       0.0700
18 H18      -3.2805    -0.6906     0.4082 H      1 <0>       0.0800
19 H19      -2.4992    -0.1905     1.9273 H      1 <0>       0.0900
20 H20      -0.0148    -1.6373     1.9382 H      1 <0>       0.0700
21 H21       0.8952    -0.7846     0.6682 H      1 <0>       0.0800
22 H22      -0.0239     0.1416     1.8788 H      1 <0>       0.0900
23 H23       0.0528    -0.9662    -3.5748 H      1 <0>       0.1500
24 H24      -0.0120    -2.2346    -5.6836 H      1 <0>       0.1600
25 H25      -0.1184    -4.6930    -5.6402 H      1 <0>       0.1600
26 H26       0.6987    -6.4005    -5.3848 H      1 <0>       0.1300
27 H27      -0.2514    -7.8055    -4.8448 H      1 <0>       0.1300
28 H28      -1.0796    -6.3225    -5.3770 H      1 <0>       0.1300
29 H29       1.0261    -6.3593    -1.7676 H      1 <0>       0.1200
30 H30       0.9574    -7.8266    -2.7729 H      1 <0>       0.1300
31 H31       1.9074    -6.4216    -3.3128 H      1 <0>       0.1200
32 H32      -2.2674    -6.2386    -3.2945 H      1 <0>       0.1200
33 H33      -1.4392    -7.7215    -2.7624 H      1 <0>       0.1300
34 H34      -1.3705    -6.2542    -1.7571 H      1 <0>       0.1200
35 H35      -0.0907    -4.6282    -1.3765 H      1 <0>       0.1500
@<TRIPOS>BOND
1    1    2 1
2    1   17 1
3    1   18 1
4    1   19 1
5    2    3 1
6    2    4 am
7    3   20 1
8    3   21 1
9    3   22 1
10    4    5 2
11    4    6 1
12    6    7 1
13    7   16 ar
14    7    8 ar
15    8    9 ar
16    8   23 1
17    9   10 ar
18    9   24 1
19   10   11 ar
20   10   25 1
21   11   12 1
22   11   16 ar
23   12   13 1
24   12   14 1
25   12   15 1
26   13   26 1
27   13   27 1
28   13   28 1
29   14   29 1
30   14   30 1
31   14   31 1
32   15   32 1
33   15   33 1
34   15   34 1
35   16   35 1
