@<TRIPOS>MOLECULE
ZINC000084589076
38   40    0    0    0
SMALL
USER_CHARGES
NO_NAME
@<TRIPOS>ATOM
1 C1       -0.0003     1.4979     0.0363 C.3    1 <0>      -0.2000
2 C2        0.0129    -0.0090     0.0261 C.2    1 <0>       0.3800
3 O3        1.0639    -0.6037     0.0337 O.2    1 <0>      -0.4700
4 C4       -1.2854    -0.7738     0.0064 C.3    1 <0>      -0.1700
5 C5       -0.9927    -2.2755    -0.0007 C.3    1 <0>       0.0700
6 H6       -0.4256    -2.5310    -0.8958 H      1 <0>       0.0600
7 C7       -2.2911    -3.0405     0.0066 C.ar   1 <0>      -0.0400
8 C8       -3.2293    -2.8001     0.9930 C.ar   1 <0>      -0.1100
9 C9       -4.4204    -3.5017     0.9997 C.ar   1 <0>      -0.1300
10 C10      -4.6733    -4.4434     0.0198 C.ar   1 <0>      -0.1400
11 C11      -3.7355    -4.6832    -0.9670 C.ar   1 <0>      -0.1300
12 C12      -2.5463    -3.9784    -0.9762 C.ar   1 <0>      -0.1100
13 C13      -0.1900    -2.6366     1.2226 C.2    1 <0>      -0.4300
14 C14      -0.1867    -1.8083     2.3108 C.2    1 <0>       0.3400
15 O15      -0.8977    -0.6577     2.3126 O.3    1 <0>      -0.6600
16 C16       0.6132    -2.2065     3.4796 C.ar   1 <0>      -0.1700
17 C17       0.6618    -1.4089     4.6245 C.ar   1 <0>      -0.0400
18 C18       1.4201    -1.8105     5.7022 C.ar   1 <0>      -0.1700
19 C19       2.1324    -2.9994     5.6527 C.ar   1 <0>      -0.0900
20 C20       2.0929    -3.7966     4.5277 C.ar   1 <0>      -0.1600
21 C21       1.3344    -3.4105     3.4306 C.ar   1 <0>       0.1500
22 O22       1.2841    -4.1792     2.3212 O.3    1 <0>      -0.3000
23 C23       0.5524    -3.8269     1.2521 C.2    1 <0>       0.5200
24 O24       0.5412    -4.5562     0.2758 O.2    1 <0>      -0.5400
25 H25       1.0241     1.8701     0.0503 H      1 <0>       0.0600
26 H26      -0.5073     1.8628    -0.8569 H      1 <0>       0.0700
27 H27      -0.5272     1.8506     0.9229 H      1 <0>       0.0900
28 H28      -1.8692    -0.5216     0.8916 H      1 <0>       0.1500
29 H29      -1.8493    -0.5094    -0.8882 H      1 <0>       0.0500
30 H30      -3.0317    -2.0644     1.7585 H      1 <0>       0.1300
31 H31      -5.1531    -3.3144     1.7707 H      1 <0>       0.1100
32 H32      -5.6035    -4.9921     0.0255 H      1 <0>       0.1100
33 H33      -3.9330    -5.4191    -1.7323 H      1 <0>       0.1100
34 H34      -1.8135    -4.1657    -1.7472 H      1 <0>       0.1200
35 H35       0.1084    -0.4823     4.6649 H      1 <0>       0.1300
36 H36       1.4604    -1.1964     6.5897 H      1 <0>       0.1200
37 H37       2.7241    -3.3039     6.5033 H      1 <0>       0.1200
38 H38       2.6513    -4.7206     4.5003 H      1 <0>       0.1300
@<TRIPOS>BOND
1    1    2 1
2    1   25 1
3    1   26 1
4    1   27 1
5    2    3 2
6    2    4 1
7    4    5 1
8    4   28 1
9    4   29 1
10    5    6 1
11    5    7 1
12    5   13 1
13    7   12 ar
14    7    8 ar
15    8    9 ar
16    8   30 1
17    9   10 ar
18    9   31 1
19   10   11 ar
20   10   32 1
21   11   12 ar
22   11   33 1
23   12   34 1
24   13   23 1
25   13   14 2
26   14   15 1
27   14   16 1
28   16   21 ar
29   16   17 ar
30   17   18 ar
31   17   35 1
32   18   19 ar
33   18   36 1
34   19   20 ar
35   19   37 1
36   20   21 ar
37   20   38 1
38   21   22 1
39   22   23 1
40   23   24 2
