@<TRIPOS>MOLECULE
ZINC000005179119
23   23    0    0    0
SMALL
USER_CHARGES
NO_NAME
@<TRIPOS>ATOM
1 C1       -0.0184     1.5028     0.0103 C.3    1 <0>      -0.1400
2 C2        0.0021    -0.0041     0.0020 C.2    1 <0>       0.5200
3 O3        1.0605    -0.5961    -0.0113 O.2    1 <0>      -0.6400
4 N4       -1.1558    -0.6938     0.0094 N.pl3  1 <0>      -1.1200
5 S5       -1.1334    -2.3496     0.0003 S.o2   1 <0>       2.6400
6 O6       -0.5955    -2.7367    -1.2568 O.2    1 <0>      -1.0300
7 O7       -0.5716    -2.7501     1.2426 O.2    1 <0>      -1.0300
8 C8       -2.8091    -2.8940     0.0133 C.ar   1 <0>      -0.6700
9 C9       -3.4555    -3.1082     1.2169 C.ar   1 <0>       0.0200
10 C10      -4.7689    -3.5349     1.2308 C.ar   1 <0>      -0.2200
11 C11      -5.4406    -3.7490     0.0339 C.ar   1 <0>       0.2400
12 N12      -6.7691    -4.1801     0.0443 N.pl3  1 <0>      -0.8800
13 C13      -4.7883    -3.5329    -1.1733 C.ar   1 <0>      -0.2200
14 C14      -3.4766    -3.1007    -1.1800 C.ar   1 <0>       0.0200
15 H15       1.0042     1.8801     0.0026 H      1 <0>       0.0600
16 H16      -0.5455     1.8639    -0.8728 H      1 <0>       0.0700
17 H17      -0.5286     1.8543     0.9071 H      1 <0>       0.0700
18 H18      -2.9325    -2.9419     2.1471 H      1 <0>       0.1400
19 H19      -5.2730    -3.7023     2.1711 H      1 <0>       0.1200
20 H20      -7.2237    -4.3304     0.8879 H      1 <0>       0.4000
21 H21      -7.2372    -4.3292    -0.7922 H      1 <0>       0.4000
22 H22      -5.3076    -3.6987    -2.1057 H      1 <0>       0.1200
23 H23      -2.9689    -2.9325    -2.1182 H      1 <0>       0.1400
@<TRIPOS>BOND
1    1    2 1
2    1   15 1
3    1   16 1
4    1   17 1
5    2    3 2
6    2    4 1
7    4    5 1
8    5    6 2
9    5    7 2
10    5    8 1
11    8   14 ar
12    8    9 ar
13    9   10 ar
14    9   18 1
15   10   11 ar
16   10   19 1
17   11   12 1
18   11   13 ar
19   12   20 1
20   12   21 1
21   13   14 ar
22   13   22 1
23   14   23 1
