@<TRIPOS>MOLECULE
ZINC000000403533
44    48    1     0     0
SMALL
USER_CHARGES
@<TRIPOS>ATOM
1      C1     -0.9124    1.4567   -1.1804 C.3      1 ZINC000000403533    0.0300
2      O2     -0.7254    0.0588   -0.9501 O.3      1 ZINC000000403533   -0.3000
3      C3      0.0077   -0.6255   -1.8686 C.ar     1 ZINC000000403533    0.1200
4      C4      0.5566    0.0090   -2.9804 C.ar     1 ZINC000000403533   -0.1700
5      C5      1.2818   -0.6584   -3.9542 C.ar     1 ZINC000000403533   -0.1000
6      C6      1.5087   -2.0188   -3.8442 C.ar     1 ZINC000000403533   -0.0600
7      C7      2.1685   -2.8608   -4.8878 C.3      1 ZINC000000403533   -0.1100
8      C8      2.3048   -4.3206   -4.4884 C.3      1 ZINC000000403533    0.0700
9      H9      2.3233   -4.9170   -5.4005 H        1 ZINC000000403533    0.0900
10     N10     3.5732   -4.5412   -3.7824 N.3      1 ZINC000000403533   -0.5300
11     C11     4.7176   -4.1893   -4.6335 C.3      1 ZINC000000403533    0.0200
12     C12     3.6271   -3.8218   -2.5049 C.3      1 ZINC000000403533    0.0600
13     C13     2.4882   -4.2930   -1.5923 C.3      1 ZINC000000403533   -0.1000
14     C14     1.1640   -4.0705   -2.3199 C.3      1 ZINC000000403533   -0.0200
15     C15     1.0316   -2.6165   -2.6999 C.ar     1 ZINC000000403533   -0.1500
16     C16     0.2492   -1.9980   -1.7358 C.ar     1 ZINC000000403533    0.0900
17     O17    -0.1784   -2.9023   -0.8288 O.3      1 ZINC000000403533   -0.2700
18     C18    -0.0315   -4.2429   -1.3926 C.3      1 ZINC000000403533    0.0600
19     H19     0.1770   -4.9799   -0.6171 H        1 ZINC000000403533    0.1500
20     C20    -1.3047   -4.5637   -2.1177 C.2      1 ZINC000000403533    0.3500
21     O21    -2.3536   -4.2812   -1.5903 O.2      1 ZINC000000403533   -0.4300
22     C22    -1.3369   -5.2179   -3.4661 C.3      1 ZINC000000403533   -0.1600
23     C23    -0.2304   -4.6404   -4.3512 C.3      1 ZINC000000403533   -0.1400
24     C24     1.1629   -4.8401   -3.6104 C.3      1 ZINC000000403533    0.1600
25     O25     1.3681   -6.2290   -3.3444 O.3      1 ZINC000000403533   -0.5300
26     H26     0.0576    1.9530   -1.2096 H        1 ZINC000000403533    0.0600
27     H27    -1.4242    1.6030   -2.1316 H        1 ZINC000000403533    0.0600
28     H28    -1.5132    1.8803   -0.3756 H        1 ZINC000000403533    0.1000
29     H29     0.4094    1.0734   -3.0890 H        1 ZINC000000403533    0.1300
30     H30     1.6710   -0.1149   -4.8024 H        1 ZINC000000403533    0.1300
31     H31     1.5827   -2.8028   -5.8052 H        1 ZINC000000403533    0.0900
32     H32     3.1621   -2.4582   -5.0848 H        1 ZINC000000403533    0.0900
33     H33     4.7214   -3.1138   -4.8107 H        1 ZINC000000403533    0.0300
34     H34     5.6432   -4.4788   -4.1359 H        1 ZINC000000403533    0.0700
35     H35     4.6374   -4.7141   -5.5855 H        1 ZINC000000403533    0.0700
36     H36     4.5838   -4.0162   -2.0200 H        1 ZINC000000403533    0.0800
37     H37     3.5259   -2.7519   -2.6873 H        1 ZINC000000403533    0.0400
38     H38     2.6111   -5.3528   -1.3694 H        1 ZINC000000403533    0.0900
39     H39     2.4989   -3.7189   -0.6657 H        1 ZINC000000403533    0.0800
40     H40    -1.1858   -6.2913   -3.3515 H        1 ZINC000000403533    0.1100
41     H41    -2.3052   -5.0376   -3.9330 H        1 ZINC000000403533    0.1000
42     H42    -0.2225   -5.1573   -5.3108 H        1 ZINC000000403533    0.0900
43     H43    -0.4054   -3.5760   -4.5078 H        1 ZINC000000403533    0.0800
44     H44     1.3850   -6.7829   -4.1368 H        1 ZINC000000403533    0.3800
@<TRIPOS>BOND
1     1     2     1
2     1     26    1
3     1     27    1
4     1     28    1
5     2     3     1
6     3     16    ar
7     3     4     ar
8     4     5     ar
9     4     29    1
10    5     6     ar
11    5     30    1
12    6     15    ar
13    6     7     1
14    7     8     1
15    7     31    1
16    7     32    1
17    8     9     1
18    8     24    1
19    8     10    1
20    10    11    1
21    10    12    1
22    11    33    1
23    11    34    1
24    11    35    1
25    12    13    1
26    12    36    1
27    12    37    1
28    13    14    1
29    13    38    1
30    13    39    1
31    14    18    1
32    14    24    1
33    14    15    1
34    15    16    ar
35    16    17    1
36    17    18    1
37    18    19    1
38    18    20    1
39    20    21    2
40    20    22    1
41    22    23    1
42    22    40    1
43    22    41    1
44    23    24    1
45    23    42    1
46    23    43    1
47    24    25    1
48    25    44    1
@<TRIPOS>SUBSTRUCTURE
1   ZINC000000403533 1     RESIDUE    1   A     ZIN   1
