@<TRIPOS>MOLECULE
ZINC000004097416
53    56    1     0     0
SMALL
USER_CHARGES
@<TRIPOS>ATOM
1      C1     -0.0624   -1.0966    0.1310 C.1      1 ZINC000004097416   -0.1800
2      C2     -0.0613    0.0749    0.0553 C.1      1 ZINC000004097416   -0.2100
3      C3     -0.0598    1.5439   -0.0396 C.3      1 ZINC000004097416    0.2500
4      O4     -0.8006    2.1093    1.0437 O.3      1 ZINC000004097416   -0.5300
5      C5     -0.6599    1.9936   -1.3937 C.3      1 ZINC000004097416   -0.1400
6      C6      0.4832    2.7060   -2.1648 C.3      1 ZINC000004097416   -0.1100
7      C7      1.7496    2.1080   -1.5389 C.3      1 ZINC000004097416   -0.0800
8      H8      1.9179    1.0984   -1.9136 H        1 ZINC000004097416    0.0800
9      C9      3.0048    2.9427   -1.6924 C.3      1 ZINC000004097416   -0.0800
10     H10     2.8611    3.9098   -1.2105 H        1 ZINC000004097416    0.0900
11     C11     3.3572    3.1520   -3.1642 C.3      1 ZINC000004097416   -0.1100
12     C12     4.5826    4.0677   -3.2603 C.3      1 ZINC000004097416   -0.0900
13     C13     5.7049    3.4716   -2.4279 C.2      1 ZINC000004097416   -0.1100
14     C14     6.8763    3.3431   -2.9793 C.2      1 ZINC000004097416   -0.1600
15     C15     8.0633    2.7620   -2.2668 C.3      1 ZINC000004097416   -0.0900
16     C16     7.8912    2.9673   -0.7586 C.3      1 ZINC000004097416   -0.1200
17     C17     6.5561    2.3530   -0.3382 C.3      1 ZINC000004097416   -0.1400
18     C18     5.3996    3.0694   -1.0129 C.3      1 ZINC000004097416   -0.0400
19     H19     5.1792    3.9748   -0.4474 H        1 ZINC000004097416    0.0700
20     C20     4.1517    2.1868   -0.9992 C.3      1 ZINC000004097416   -0.0400
21     H21     4.3544    1.2675   -1.5486 H        1 ZINC000004097416    0.0800
22     C22     3.7629    1.8461    0.4165 C.2      1 ZINC000004097416   -0.1100
23     C23     4.5933    2.0745    1.4036 C.2      1 ZINC000004097416   -0.2100
24     C24     2.3962    1.2336    0.6883 C.3      1 ZINC000004097416   -0.0700
25     C25     1.3730    2.0723   -0.0326 C.3      1 ZINC000004097416   -0.0300
26     C26     1.4085    3.5069    0.4980 C.3      1 ZINC000004097416   -0.1000
27     C27     1.2517    3.4918    2.0199 C.3      1 ZINC000004097416   -0.1600
28     H28    -0.0635   -2.1445    0.1988 H        1 ZINC000004097416    0.2200
29     H29    -1.7240    1.8246    1.0796 H        1 ZINC000004097416    0.3700
30     H30    -1.0064    1.1263   -1.9557 H        1 ZINC000004097416    0.0700
31     H31    -1.4854    2.6852   -1.2256 H        1 ZINC000004097416    0.0800
32     H32     0.4329    2.4742   -3.2287 H        1 ZINC000004097416    0.0700
33     H33     0.4447    3.7831   -2.0019 H        1 ZINC000004097416    0.0700
34     H34     3.5835    2.1906   -3.6251 H        1 ZINC000004097416    0.0600
35     H35     2.5150    3.6149   -3.6785 H        1 ZINC000004097416    0.0700
36     H36     4.9002    4.1451   -4.3001 H        1 ZINC000004097416    0.0700
37     H37     4.3303    5.0570   -2.8785 H        1 ZINC000004097416    0.0700
38     H38     7.0010    3.6704   -4.0009 H        1 ZINC000004097416    0.1000
39     H39     8.1330    1.6961   -2.4840 H        1 ZINC000004097416    0.0700
40     H40     8.9711    3.2637   -2.6018 H        1 ZINC000004097416    0.0700
41     H41     8.7054    2.4760   -0.2258 H        1 ZINC000004097416    0.0600
42     H42     7.8930    4.0332   -0.5305 H        1 ZINC000004097416    0.0600
43     H43     6.5403    1.3004   -0.6211 H        1 ZINC000004097416    0.0600
44     H44     6.4477    2.4351    0.7433 H        1 ZINC000004097416    0.0900
45     H45     5.3192    2.8704    1.3254 H        1 ZINC000004097416    0.1200
46     H46     4.5521    1.4670    2.2955 H        1 ZINC000004097416    0.1000
47     H47     2.3574    0.2176    0.2955 H        1 ZINC000004097416    0.0700
48     H48     2.1951    1.2293    1.7595 H        1 ZINC000004097416    0.0800
49     H49     2.3606    3.9680    0.2354 H        1 ZINC000004097416    0.0700
50     H50     0.5933    4.0786    0.0544 H        1 ZINC000004097416    0.0600
51     H51     1.1871    4.5155    2.3887 H        1 ZINC000004097416    0.0400
52     H52     0.3432    2.9517    2.2862 H        1 ZINC000004097416    0.0800
53     H53     2.1132    2.9975    2.4690 H        1 ZINC000004097416    0.0500
@<TRIPOS>BOND
1     1     2     3
2     1     28    1
3     2     3     1
4     3     25    1
5     3     4     1
6     3     5     1
7     4     29    1
8     5     6     1
9     5     30    1
10    5     31    1
11    6     7     1
12    6     32    1
13    6     33    1
14    7     8     1
15    7     25    1
16    7     9     1
17    9     10    1
18    9     20    1
19    9     11    1
20    11    12    1
21    11    34    1
22    11    35    1
23    12    13    1
24    12    36    1
25    12    37    1
26    13    18    1
27    13    14    2
28    14    15    1
29    14    38    1
30    15    16    1
31    15    39    1
32    15    40    1
33    16    17    1
34    16    41    1
35    16    42    1
36    17    18    1
37    17    43    1
38    17    44    1
39    18    19    1
40    18    20    1
41    20    21    1
42    20    22    1
43    22    23    2
44    22    24    1
45    23    45    1
46    23    46    1
47    24    25    1
48    24    47    1
49    24    48    1
50    25    26    1
51    26    27    1
52    26    49    1
53    26    50    1
54    27    51    1
55    27    52    1
56    27    53    1
@<TRIPOS>SUBSTRUCTURE
1   ZINC000004097416 1     RESIDUE    1   A     ZIN   1
