@<TRIPOS>MOLECULE
ZINC000006745272
48   50    0    0    0
SMALL
USER_CHARGES
NO_NAME
@<TRIPOS>ATOM
1 C1        6.5889    -4.9564     2.4477 C.3    1 <0>       0.0800
2 N2        5.7728    -4.2447     1.4610 N.am   1 <0>      -0.7100
3 C3        4.9982    -4.9365     0.6020 C.2    1 <0>       0.5700
4 O4        4.9768    -6.1507     0.6460 O.2    1 <0>      -0.5300
5 C5        4.1728    -4.2166    -0.3960 C.ar   1 <0>       0.1100
6 C6        3.3716    -4.9365    -1.2755 C.ar   1 <0>      -0.1900
7 C7        2.6013    -4.2446    -2.2074 C.ar   1 <0>       0.1600
8 O8        1.8057    -4.9098    -3.0831 O.3    1 <0>      -0.2400
9 C9        1.8604    -6.2682    -3.0901 C.ar   1 <0>       0.0900
10 C10       1.2456    -6.9919    -2.0790 C.ar   1 <0>      -0.1200
11 C11       1.3002    -8.3724    -2.0847 C.ar   1 <0>      -0.0700
12 C12       1.9699    -9.0362    -3.1025 C.ar   1 <0>       0.1400
13 N13       2.0250   -10.4376    -3.1087 N.am   1 <0>      -0.6800
14 C14       0.9779   -11.1552    -2.6561 C.2    1 <0>       0.7100
15 O15       0.0189   -10.5895    -2.1673 O.2    1 <0>      -0.5500
16 N16       0.9936   -12.4999    -2.7452 N.am   1 <0>      -0.6800
17 C17      -0.1388   -13.2387    -2.3826 C.ar   1 <0>       0.1700
18 C18      -1.4078   -12.7306    -2.6257 C.ar   1 <0>      -0.0700
19 C19      -2.5236   -13.4616    -2.2669 C.ar   1 <0>      -0.0900
20 C20      -2.3774   -14.6991    -1.6657 C.ar   1 <0>      -0.0100
21 Cl21     -3.7818   -15.6153    -1.2160 Cl     1 <0>      -0.0400
22 C22      -1.1136   -15.2081    -1.4227 C.ar   1 <0>      -0.1600
23 C23      -0.9581   -16.5568    -0.7686 C.3    1 <0>       0.5100
24 F24       0.4019   -16.8534    -0.6289 F      1 <0>      -0.1700
25 F25      -1.5628   -16.5358     0.4929 F      1 <0>      -0.1700
26 F26      -1.5692   -17.5333    -1.5624 F      1 <0>      -0.1700
27 C27       0.0051   -14.4837    -1.7842 C.ar   1 <0>      -0.0900
28 C28       2.5860    -8.3111    -4.1167 C.ar   1 <0>       0.0900
29 F29       3.2381    -8.9561    -5.1087 F      1 <0>      -0.1300
30 C30       2.5262    -6.9301    -4.1120 C.ar   1 <0>      -0.1300
31 C31       2.6672    -2.8542    -2.2182 C.ar   1 <0>      -0.1700
32 C32       3.4885    -2.2086    -1.3110 C.ar   1 <0>       0.1400
33 N33       4.2009    -2.8893    -0.4388 N.ar   1 <0>      -0.4800
34 H34       5.9420    -5.5487     3.0949 H      1 <0>       0.0600
35 H35       7.2891    -5.6146     1.9333 H      1 <0>       0.0600
36 H36       7.1427    -4.2355     3.0491 H      1 <0>       0.0800
37 H37       5.7899    -3.2754     1.4259 H      1 <0>       0.4100
38 H38       3.3471    -6.0156    -1.2369 H      1 <0>       0.1500
39 H39       0.7242    -6.4758    -1.2865 H      1 <0>       0.1500
40 H40       0.8219    -8.9349    -1.2966 H      1 <0>       0.1600
41 H41       2.8169   -10.8903    -3.4388 H      1 <0>       0.4200
42 H42       1.7896   -12.9558    -3.0605 H      1 <0>       0.4200
43 H43      -1.5224   -11.7645    -3.0946 H      1 <0>       0.1500
44 H44      -3.5109   -13.0666    -2.4555 H      1 <0>       0.1500
45 H45       0.9911   -14.8813    -1.5943 H      1 <0>       0.1500
46 H46       3.0041    -6.3661    -4.8994 H      1 <0>       0.1500
47 H47       2.0839    -2.2856    -2.9272 H      1 <0>       0.1500
48 H48       3.5424    -1.1300    -1.3161 H      1 <0>       0.1800
@<TRIPOS>BOND
1    1    2 1
2    1   34 1
3    1   35 1
4    1   36 1
5    2    3 am
6    2   37 1
7    3    4 2
8    3    5 1
9    5   33 ar
10    5    6 ar
11    6    7 ar
12    6   38 1
13    7    8 1
14    7   31 ar
15    8    9 1
16    9   30 ar
17    9   10 ar
18   10   11 ar
19   10   39 1
20   11   12 ar
21   11   40 1
22   12   13 1
23   12   28 ar
24   13   14 am
25   13   41 1
26   14   15 2
27   14   16 am
28   16   17 1
29   16   42 1
30   17   27 ar
31   17   18 ar
32   18   19 ar
33   18   43 1
34   19   20 ar
35   19   44 1
36   20   21 1
37   20   22 ar
38   22   23 1
39   22   27 ar
40   23   24 1
41   23   25 1
42   23   26 1
43   27   45 1
44   28   29 1
45   28   30 ar
46   30   46 1
47   31   32 ar
48   31   47 1
49   32   33 ar
50   32   48 1
