@<TRIPOS>MOLECULE
ZINC000000967597
25    25    1     0     0
SMALL
USER_CHARGES
@<TRIPOS>ATOM
1      C1     -0.0184    1.5028    0.0103 C.3      1 ZINC000000967597   -0.1200
2      C2      0.0021   -0.0041    0.0020 C.ar     1 ZINC000000967597   -0.0800
3      C3      0.0057   -0.6881   -1.1993 C.ar     1 ZINC000000967597   -0.1300
4      C4      0.0244   -2.0708   -1.2103 C.ar     1 ZINC000000967597   -0.1000
5      C5      0.0396   -2.7719   -0.0204 C.ar     1 ZINC000000967597   -0.1100
6      C6      0.0605   -4.2787   -0.0331 C.3      1 ZINC000000967597   -0.0600
7      C7     -1.1849   -4.8000   -0.7529 C.3      1 ZINC000000967597   -0.1400
8      C8      1.3133   -4.7652   -0.7642 C.3      1 ZINC000000967597   -0.1400
9      C9      0.0360   -2.0877    1.1867 C.ar     1 ZINC000000967597    0.1100
10     O10     0.0513   -2.7752    2.3589 O.3      1 ZINC000000967597   -0.5000
11     C11     0.0229   -0.7007    1.1950 C.ar     1 ZINC000000967597   -0.1400
12     H12     1.0042    1.8801    0.0026 H        1 ZINC000000967597    0.0700
13     H13    -0.5455    1.8639   -0.8728 H        1 ZINC000000967597    0.0700
14     H14    -0.5286    1.8543    0.9071 H        1 ZINC000000967597    0.0700
15     H15    -0.0065   -0.1417   -2.1308 H        1 ZINC000000967597    0.1200
16     H16     0.0269   -2.6029   -2.1501 H        1 ZINC000000967597    0.1300
17     H17     0.0703   -4.6506    0.9915 H        1 ZINC000000967597    0.0800
18     H18    -1.1947   -4.4281   -1.7775 H        1 ZINC000000967597    0.0600
19     H19    -1.1697   -5.8899   -0.7621 H        1 ZINC000000967597    0.0600
20     H20    -2.0774   -4.4534   -0.2320 H        1 ZINC000000967597    0.0600
21     H21     1.3285   -5.8551   -0.7734 H        1 ZINC000000967597    0.0600
22     H22     1.3035   -4.3934   -1.7888 H        1 ZINC000000967597    0.0600
23     H23     2.2006   -4.3939   -0.2514 H        1 ZINC000000967597    0.0500
24     H24     0.9390   -2.9619    2.6938 H        1 ZINC000000967597    0.3900
25     H25     0.0200   -0.1658    2.1333 H        1 ZINC000000967597    0.1300
@<TRIPOS>BOND
1     1     2     1
2     1     12    1
3     1     13    1
4     1     14    1
5     2     11    ar
6     2     3     ar
7     3     4     ar
8     3     15    1
9     4     5     ar
10    4     16    1
11    5     6     1
12    5     9     ar
13    6     7     1
14    6     8     1
15    6     17    1
16    7     18    1
17    7     19    1
18    7     20    1
19    8     21    1
20    8     22    1
21    8     23    1
22    9     10    1
23    9     11    ar
24    10    24    1
25    11    25    1
@<TRIPOS>SUBSTRUCTURE
1   ZINC000000967597 1     RESIDUE    1   A     ZIN   1
