@<TRIPOS>MOLECULE
ZINC000101489663
49   50    0    0    0
SMALL
USER_CHARGES
NO_NAME
@<TRIPOS>ATOM
1 C1       -0.0187     1.5258     0.0104 C.3    1 <0>      -0.1500
2 C2        0.0021    -0.0041     0.0020 C.3    1 <0>      -0.0900
3 C3        0.7421    -0.5109     1.2415 C.3    1 <0>      -0.1500
4 C4       -1.4333    -0.5336     0.0129 C.3    1 <0>      -0.0700
5 H5       -1.9435    -0.1821     0.9097 H      1 <0>       0.0600
6 C6       -2.1733    -0.0268    -1.2266 C.3    1 <0>      -0.1300
7 C7       -3.6087    -0.5564    -1.2158 C.3    1 <0>      -0.0900
8 C8       -3.5879    -2.0862    -1.2242 C.3    1 <0>      -0.1100
9 H9       -4.6105    -2.4635    -1.2165 H      1 <0>       0.0800
10 C10      -2.8826    -2.5722    -2.4641 C.2    1 <0>       0.5200
11 O11      -2.4400    -1.7736    -3.2624 O.2    1 <0>      -0.5500
12 N12      -2.7435    -3.8943    -2.6858 N.am   1 <0>      -0.6900
13 C13      -2.0578    -4.3668    -3.8911 C.3    1 <0>       0.0800
14 H14      -2.2737    -3.6925    -4.7199 H      1 <0>       0.0800
15 C15      -2.5474    -5.7743    -4.2379 C.3    1 <0>      -0.0800
16 C16      -4.0081    -5.7218    -4.6049 C.ar   1 <0>      -0.0600
17 C17      -4.9725    -5.8720    -3.6260 C.ar   1 <0>      -0.1200
18 C18      -6.3124    -5.8239    -3.9626 C.ar   1 <0>      -0.1200
19 C19      -6.6878    -5.6251    -5.2780 C.ar   1 <0>      -0.1400
20 C20      -5.7234    -5.4739    -6.2568 C.ar   1 <0>      -0.1200
21 C21      -4.3836    -5.5178    -5.9195 C.ar   1 <0>      -0.1200
22 C22      -0.5716    -4.3987    -3.6437 C.2    1 <0>       0.4900
23 O23      -0.1378    -4.2364    -2.5159 O.co2  1 <0>      -0.6800
24 O24       0.1970    -4.5868    -4.5713 O.co2  1 <0>      -0.7000
25 C25      -2.8479    -2.5931     0.0153 C.3    1 <0>      -0.1000
26 C26      -1.4126    -2.0635     0.0045 C.3    1 <0>      -0.1300
27 H27       1.0039     1.9031     0.0027 H      1 <0>       0.0500
28 H28      -0.5459     1.8868    -0.8726 H      1 <0>       0.0600
29 H29      -0.5289     1.8773     0.9072 H      1 <0>       0.0500
30 H30       0.5123    -0.3556    -0.8948 H      1 <0>       0.0700
31 H31       0.2319    -0.1594     2.1383 H      1 <0>       0.0500
32 H32       0.7568    -1.6008     1.2356 H      1 <0>       0.0600
33 H33       1.7647    -0.1336     1.2338 H      1 <0>       0.0500
34 H34      -2.1881     1.0631    -1.2207 H      1 <0>       0.0500
35 H35      -1.6631    -0.3783    -2.1234 H      1 <0>       0.1000
36 H36      -4.1189    -0.2049    -0.3190 H      1 <0>       0.0600
37 H37      -4.1359    -0.1953    -2.0988 H      1 <0>       0.0600
38 H38      -3.0975    -4.5331    -2.0473 H      1 <0>       0.3900
39 H39      -1.9747    -6.1608    -5.0808 H      1 <0>       0.0900
40 H40      -2.4125    -6.4284    -3.3764 H      1 <0>       0.0700
41 H41      -4.6792    -6.0274    -2.5982 H      1 <0>       0.1200
42 H42      -7.0659    -5.9420    -3.1979 H      1 <0>       0.1200
43 H43      -7.7347    -5.5882    -5.5412 H      1 <0>       0.1200
44 H44      -6.0167    -5.3189    -7.2846 H      1 <0>       0.1200
45 H45      -3.6301    -5.3996    -6.6842 H      1 <0>       0.1200
46 H46      -3.3581    -2.2415     0.9121 H      1 <0>       0.0600
47 H47      -2.8332    -3.6829     0.0093 H      1 <0>       0.0600
48 H48      -0.9024    -2.4150    -0.8923 H      1 <0>       0.0900
49 H49      -0.8854    -2.4246     0.8875 H      1 <0>       0.0600
@<TRIPOS>BOND
1    1    2 1
2    1   27 1
3    1   28 1
4    1   29 1
5    2    3 1
6    2    4 1
7    2   30 1
8    3   31 1
9    3   32 1
10    3   33 1
11    4    5 1
12    4   26 1
13    4    6 1
14    6    7 1
15    6   34 1
16    6   35 1
17    7    8 1
18    7   36 1
19    7   37 1
20    8    9 1
21    8   10 1
22    8   25 1
23   10   11 2
24   10   12 am
25   12   13 1
26   12   38 1
27   13   14 1
28   13   15 1
29   13   22 1
30   15   16 1
31   15   39 1
32   15   40 1
33   16   21 ar
34   16   17 ar
35   17   18 ar
36   17   41 1
37   18   19 ar
38   18   42 1
39   19   20 ar
40   19   43 1
41   20   21 ar
42   20   44 1
43   21   45 1
44   22   23 ar
45   22   24 ar
46   25   26 1
47   25   46 1
48   25   47 1
49   26   48 1
50   26   49 1
