@<TRIPOS>MOLECULE
ZINC000000020251
41    43    1     0     0
SMALL
USER_CHARGES
@<TRIPOS>ATOM
1      C1      2.6283    0.8861    0.1423 C.3      1 ZINC000000020251   -0.1200
2      C2      1.9464   -0.4571    0.0990 C.ar     1 ZINC000000020251   -0.1100
3      C3      1.4091   -0.9955    1.2540 C.ar     1 ZINC000000020251   -0.0800
4      C4      0.7831   -2.2259    1.2178 C.ar     1 ZINC000000020251   -0.1900
5      C5      0.6934   -2.9229    0.0194 C.ar     1 ZINC000000020251    0.1800
6      N6      0.0604   -4.1678   -0.0209 N.pl3    1 ZINC000000020251   -0.5800
7      C7     -0.4973   -4.7460    1.2042 C.3      1 ZINC000000020251    0.1400
8      C8     -1.9296   -4.3046    1.3613 C.cat    1 ZINC000000020251    0.4900
9      N9     -2.2628   -3.2085    2.0014 N.pl3    1 ZINC000000020251   -0.6200
10     H10    -1.6420   -2.5938    2.4228 H        1 ZINC000000020251    0.4600
11     C11    -3.7267   -3.0584    1.9783 C.3      1 ZINC000000020251    0.0600
12     C12    -4.1954   -4.2980    1.1884 C.3      1 ZINC000000020251    0.0600
13     N13    -2.9351   -4.9851    0.8632 N.pl3    1 ZINC000000020251   -0.6300
14     C14    -0.0408   -4.8612   -1.2295 C.ar     1 ZINC000000020251    0.1300
15     C15     0.9269   -5.7950   -1.5791 C.ar     1 ZINC000000020251   -0.1100
16     C16     0.8268   -6.4801   -2.7745 C.ar     1 ZINC000000020251   -0.0900
17     C17    -0.2352   -6.2394   -3.6251 C.ar     1 ZINC000000020251   -0.1300
18     C18    -1.2050   -5.3077   -3.2813 C.ar     1 ZINC000000020251    0.1200
19     O19    -2.2488   -5.0721   -4.1191 O.3      1 ZINC000000020251   -0.4900
20     C20    -1.1116   -4.6223   -2.0806 C.ar     1 ZINC000000020251   -0.1500
21     C21     1.2343   -2.3791   -1.1390 C.ar     1 ZINC000000020251   -0.1600
22     C22     1.8543   -1.1458   -1.0966 C.ar     1 ZINC000000020251   -0.0700
23     H23     1.8959    1.6716   -0.0441 H        1 ZINC000000020251    0.0700
24     H24     3.0777    1.0339    1.1243 H        1 ZINC000000020251    0.0700
25     H25     3.4045    0.9243   -0.6220 H        1 ZINC000000020251    0.0700
26     H26     1.4794   -0.4533    2.1853 H        1 ZINC000000020251    0.1300
27     H27     0.3640   -2.6460    2.1202 H        1 ZINC000000020251    0.1100
28     H28    -0.4568   -5.8336    1.1438 H        1 ZINC000000020251    0.1400
29     H29     0.0833   -4.4079    2.0625 H        1 ZINC000000020251    0.1400
30     H30    -4.1309   -3.0716    2.9905 H        1 ZINC000000020251    0.1300
31     H31    -4.0115   -2.1422    1.4611 H        1 ZINC000000020251    0.1300
32     H32    -4.8333   -4.9297    1.8066 H        1 ZINC000000020251    0.1300
33     H33    -4.7139   -4.0002    0.2771 H        1 ZINC000000020251    0.1300
34     H34    -2.8599   -5.8132    0.3637 H        1 ZINC000000020251    0.4600
35     H35     1.7580   -5.9850   -0.9160 H        1 ZINC000000020251    0.1400
36     H36     1.5803   -7.2051   -3.0449 H        1 ZINC000000020251    0.1400
37     H37    -0.3106   -6.7767   -4.5590 H        1 ZINC000000020251    0.1400
38     H38    -3.0169   -5.6374   -3.9592 H        1 ZINC000000020251    0.4000
39     H39    -1.8654   -3.8973   -1.8113 H        1 ZINC000000020251    0.1200
40     H40     1.1666   -2.9184   -2.0722 H        1 ZINC000000020251    0.1300
41     H41     2.2746   -0.7223   -1.9968 H        1 ZINC000000020251    0.1300
@<TRIPOS>BOND
1     1     2     1
2     1     23    1
3     1     24    1
4     1     25    1
5     2     22    ar
6     2     3     ar
7     3     4     ar
8     3     26    1
9     4     5     ar
10    4     27    1
11    5     6     1
12    5     21    ar
13    6     7     1
14    6     14    1
15    7     8     1
16    7     28    1
17    7     29    1
18    8     13    ar
19    8     9     ar
20    9     10    1
21    9     11    1
22    11    12    1
23    11    30    1
24    11    31    1
25    12    13    1
26    12    32    1
27    12    33    1
28    13    34    1
29    14    20    ar
30    14    15    ar
31    15    16    ar
32    15    35    1
33    16    17    ar
34    16    36    1
35    17    18    ar
36    17    37    1
37    18    19    1
38    18    20    ar
39    19    38    1
40    20    39    1
41    21    22    ar
42    21    40    1
43    22    41    1
@<TRIPOS>SUBSTRUCTURE
1   ZINC000000020251 1     RESIDUE    1   A     ZIN   1
