@<TRIPOS>MOLECULE
ZINC000008214619
75    78    1     0     0
SMALL
USER_CHARGES
@<TRIPOS>ATOM
1      C1      0.1984    1.5575    0.1008 C.3      1 ZINC000008214619   -0.1500
2      C2      0.2000    0.0275    0.0864 C.3      1 ZINC000008214619   -0.1300
3      C3      0.8981   -0.4699   -1.1809 C.3      1 ZINC000008214619   -0.1200
4      C4      0.8997   -1.9998   -1.1952 C.3      1 ZINC000008214619   -0.1200
5      C5      1.5978   -2.4972   -2.4626 C.3      1 ZINC000008214619   -0.1200
6      C6      1.5994   -4.0272   -2.4769 C.3      1 ZINC000008214619   -0.1200
7      C7      2.2975   -4.5246   -3.7443 C.3      1 ZINC000008214619   -0.1200
8      C8      2.2991   -6.0545   -3.7586 C.3      1 ZINC000008214619   -0.1100
9      C9      2.9972   -6.5519   -5.0259 C.3      1 ZINC000008214619   -0.1100
10     C10     2.9988   -8.0588   -5.0401 C.2      1 ZINC000008214619    0.4600
11     O11     2.4934   -8.6720   -4.1299 O.2      1 ZINC000008214619   -0.5100
12     O12     3.5616   -8.7198   -6.0638 O.3      1 ZINC000008214619   -0.3500
13     C13     3.5264  -10.1704   -6.0109 C.3      1 ZINC000008214619    0.1000
14     H14     3.5245  -10.5100   -4.9752 H        1 ZINC000008214619    0.0900
15     C15     2.2759  -10.7043   -6.7530 C.3      1 ZINC000008214619   -0.1400
16     C16     2.7985  -11.6593   -7.8607 C.3      1 ZINC000008214619   -0.1100
17     C17     4.1670  -12.0920   -7.3229 C.3      1 ZINC000008214619   -0.0800
18     H18     4.0466  -12.8222   -6.5227 H        1 ZINC000008214619    0.0800
19     C19     5.1518  -12.6027   -8.3590 C.3      1 ZINC000008214619   -0.0800
20     H20     5.3099  -11.8461   -9.1275 H        1 ZINC000008214619    0.0900
21     C21     4.6147  -13.8888   -8.9935 C.3      1 ZINC000008214619   -0.1100
22     C22     5.5828  -14.3527  -10.0839 C.3      1 ZINC000008214619   -0.1000
23     C23     6.9664  -14.5013   -9.4781 C.2      1 ZINC000008214619   -0.0200
24     C24     7.6324  -15.6293   -9.7242 C.2      1 ZINC000008214619   -0.2400
25     C25     8.9798  -15.8209   -9.1772 C.2      1 ZINC000008214619    0.3900
26     O26     9.4633  -16.9255   -9.0425 O.2      1 ZINC000008214619   -0.4600
27     C27     9.7364  -14.5658   -8.7884 C.3      1 ZINC000008214619   -0.1700
28     C28     8.8037  -13.7192   -7.9235 C.3      1 ZINC000008214619   -0.1100
29     C29     7.5156  -13.3790   -8.6526 C.3      1 ZINC000008214619   -0.0600
30     H30     7.7193  -12.5469   -9.3266 H        1 ZINC000008214619    0.0900
31     C31     6.4732  -12.9002   -7.6355 C.3      1 ZINC000008214619   -0.0700
32     H32     6.2898  -13.6966   -6.9143 H        1 ZINC000008214619    0.0700
33     C33     7.0174  -11.6793   -6.8995 C.3      1 ZINC000008214619   -0.1100
34     C34     5.9716  -11.0749   -5.9494 C.3      1 ZINC000008214619   -0.1000
35     C35     4.7212  -10.7556   -6.7568 C.3      1 ZINC000008214619   -0.0600
36     C36     5.0848   -9.8612   -7.9437 C.3      1 ZINC000008214619   -0.1400
37     H37     1.2255    1.9220    0.0849 H        1 ZINC000008214619    0.0500
38     H38    -0.3325    1.9285   -0.7759 H        1 ZINC000008214619    0.0500
39     H39    -0.2990    1.9118    1.0037 H        1 ZINC000008214619    0.0500
40     H40     0.7309   -0.3435    0.9631 H        1 ZINC000008214619    0.0600
41     H41    -0.8271   -0.3370    0.1024 H        1 ZINC000008214619    0.0600
42     H42     0.3672   -0.0989   -2.0576 H        1 ZINC000008214619    0.0600
43     H43     1.9252   -0.1053   -1.1968 H        1 ZINC000008214619    0.0600
44     H44     1.4306   -2.3708   -0.3185 H        1 ZINC000008214619    0.0600
45     H45    -0.1274   -2.3644   -1.1793 H        1 ZINC000008214619    0.0600
46     H46     1.0669   -2.1262   -3.3393 H        1 ZINC000008214619    0.0600
47     H47     2.6249   -2.1327   -2.4785 H        1 ZINC000008214619    0.0600
48     H48     2.1303   -4.3982   -1.6002 H        1 ZINC000008214619    0.0600
49     H49     0.5723   -4.3917   -2.4610 H        1 ZINC000008214619    0.0600
50     H50     1.7666   -4.1535   -4.6210 H        1 ZINC000008214619    0.0600
51     H51     3.3246   -4.1600   -3.7602 H        1 ZINC000008214619    0.0600
52     H52     2.8300   -6.4255   -2.8819 H        1 ZINC000008214619    0.0700
53     H53     1.2720   -6.4191   -3.7427 H        1 ZINC000008214619    0.0700
54     H54     2.4663   -6.1809   -5.9026 H        1 ZINC000008214619    0.1000
55     H55     4.0243   -6.1873   -5.0419 H        1 ZINC000008214619    0.1000
56     H56     1.6345  -11.2497   -6.0607 H        1 ZINC000008214619    0.0800
57     H57     1.7254   -9.8772   -7.2012 H        1 ZINC000008214619    0.0700
58     H58     2.1382  -12.5194   -7.9714 H        1 ZINC000008214619    0.0700
59     H59     2.9060  -11.1298   -8.8073 H        1 ZINC000008214619    0.0700
60     H60     4.5274  -14.6625   -8.2307 H        1 ZINC000008214619    0.0700
61     H61     3.6358  -13.6970   -9.4329 H        1 ZINC000008214619    0.0700
62     H62     5.2528  -15.3126  -10.4812 H        1 ZINC000008214619    0.0800
63     H63     5.6120  -13.6140  -10.8849 H        1 ZINC000008214619    0.0800
64     H64     7.1794  -16.4029  -10.3265 H        1 ZINC000008214619    0.1300
65     H65    10.6282  -14.8317   -8.2209 H        1 ZINC000008214619    0.0900
66     H66    10.0175  -14.0106   -9.6832 H        1 ZINC000008214619    0.1000
67     H67     8.5628  -14.2713   -7.0151 H        1 ZINC000008214619    0.0700
68     H68     9.3130  -12.7947   -7.6515 H        1 ZINC000008214619    0.0800
69     H69     7.8939  -11.9738   -6.3223 H        1 ZINC000008214619    0.0700
70     H70     7.3115  -10.9258   -7.6301 H        1 ZINC000008214619    0.0700
71     H71     5.7005  -11.8024   -5.1843 H        1 ZINC000008214619    0.0600
72     H72     6.3707  -10.1746   -5.4822 H        1 ZINC000008214619    0.0700
73     H73     5.8794  -10.3314   -8.5230 H        1 ZINC000008214619    0.0600
74     H74     4.2078   -9.7222   -8.5759 H        1 ZINC000008214619    0.0600
75     H75     5.4261   -8.8929   -7.5778 H        1 ZINC000008214619    0.0600
@<TRIPOS>BOND
1     1     2     1
2     1     37    1
3     1     38    1
4     1     39    1
5     2     3     1
6     2     40    1
7     2     41    1
8     3     4     1
9     3     42    1
10    3     43    1
11    4     5     1
12    4     44    1
13    4     45    1
14    5     6     1
15    5     46    1
16    5     47    1
17    6     7     1
18    6     48    1
19    6     49    1
20    7     8     1
21    7     50    1
22    7     51    1
23    8     9     1
24    8     52    1
25    8     53    1
26    9     10    1
27    9     54    1
28    9     55    1
29    10    11    2
30    10    12    1
31    12    13    1
32    13    14    1
33    13    35    1
34    13    15    1
35    15    16    1
36    15    56    1
37    15    57    1
38    16    17    1
39    16    58    1
40    16    59    1
41    17    18    1
42    17    35    1
43    17    19    1
44    19    20    1
45    19    31    1
46    19    21    1
47    21    22    1
48    21    60    1
49    21    61    1
50    22    23    1
51    22    62    1
52    22    63    1
53    23    29    1
54    23    24    2
55    24    25    1
56    24    64    1
57    25    26    2
58    25    27    1
59    27    28    1
60    27    65    1
61    27    66    1
62    28    29    1
63    28    67    1
64    28    68    1
65    29    30    1
66    29    31    1
67    31    32    1
68    31    33    1
69    33    34    1
70    33    69    1
71    33    70    1
72    34    35    1
73    34    71    1
74    34    72    1
75    35    36    1
76    36    73    1
77    36    74    1
78    36    75    1
@<TRIPOS>SUBSTRUCTURE
1   ZINC000008214619 1     RESIDUE    1   A     ZIN   1
