@<TRIPOS>MOLECULE
ZINC000001846431
23    22    1     0     0
SMALL
USER_CHARGES
@<TRIPOS>ATOM
1      O1      0.0021   -0.0041    0.0020 O.2      1 ZINC000001846431   -0.4300
2      C2     -0.0143    1.2034    0.0087 C.2      1 ZINC000001846431    0.3300
3      C3      1.2804    1.9746    0.0004 C.3      1 ZINC000001846431    0.0000
4      H4      1.3211    2.6067   -0.8866 H        1 ZINC000001846431    0.1200
5      F5      2.3559    1.0801   -0.0146 F        1 ZINC000001846431   -0.1800
6      C6      1.3614    2.8485    1.2537 C.3      1 ZINC000001846431    0.0600
7      H7      0.5235    3.5455    1.2654 H        1 ZINC000001846431    0.1400
8      O8      1.3080    2.0197    2.4166 O.3      1 ZINC000001846431   -0.5400
9      C9      2.6759    3.6315    1.2453 C.3      1 ZINC000001846431    0.0500
10     H10     2.6784    4.3283    0.4072 H        1 ZINC000001846431    0.1200
11     O11     3.7708    2.7228    1.1126 O.3      1 ZINC000001846431   -0.5400
12     C12     2.8146    4.4092    2.5556 C.3      1 ZINC000001846431    0.0800
13     H13     2.8121    3.7123    3.3937 H        1 ZINC000001846431    0.1100
14     O14     1.7198    5.3179    2.6884 O.3      1 ZINC000001846431   -0.5400
15     C15     4.1291    5.1921    2.5473 C.3      1 ZINC000001846431    0.0500
16     O16     4.3146    5.8250    3.8150 O.3      1 ZINC000001846431   -0.5700
17     H17    -0.9568    1.7306    0.0160 H        1 ZINC000001846431    0.1200
18     H18     2.0253    1.3737    2.4724 H        1 ZINC000001846431    0.3800
19     H19     3.8306    2.0722    1.8255 H        1 ZINC000001846431    0.3800
20     H20     1.6599    5.9684    1.9754 H        1 ZINC000001846431    0.3700
21     H21     4.9574    4.5095    2.3572 H        1 ZINC000001846431    0.0600
22     H22     4.0957    5.9498    1.7644 H        1 ZINC000001846431    0.0500
23     H23     5.1301    6.3403    3.8817 H        1 ZINC000001846431    0.3800
@<TRIPOS>BOND
1     1     2     2
2     2     3     1
3     2     17    1
4     3     4     1
5     3     5     1
6     3     6     1
7     6     7     1
8     6     8     1
9     6     9     1
10    8     18    1
11    9     10    1
12    9     11    1
13    9     12    1
14    11    19    1
15    12    13    1
16    12    14    1
17    12    15    1
18    14    20    1
19    15    16    1
20    15    21    1
21    15    22    1
22    16    23    1
@<TRIPOS>SUBSTRUCTURE
1   ZINC000001846431 1     RESIDUE    1   A     ZIN   1
