@<TRIPOS>MOLECULE
ZINC000164760756
98    104   1     0     0
SMALL
USER_CHARGES
@<TRIPOS>ATOM
1      C1     -0.8927    1.2174   -0.4483 C.3      1 ZINC000164760756    0.0200
2      O2     -0.6545   -0.1870   -0.3346 O.3      1 ZINC000164760756   -0.3100
3      C3      0.1232   -0.7599   -1.2896 C.ar     1 ZINC000164760756    0.1500
4      C4      0.6506    0.0288   -2.3161 C.ar     1 ZINC000164760756   -0.2000
5      C5      1.4325   -0.5207   -3.2856 C.ar     1 ZINC000164760756   -0.0400
6      C6      1.7162   -1.8935   -3.2596 C.ar     1 ZINC000164760756   -0.1400
7      C7      2.5260   -2.4913   -4.2535 C.ar     1 ZINC000164760756    0.2200
8      O8      3.0515   -1.7514   -5.2611 O.3      1 ZINC000164760756   -0.2900
9      C9      3.7543   -2.4570   -6.2859 C.3      1 ZINC000164760756    0.0900
10     H10     3.2736   -3.4186   -6.4657 H        1 ZINC000164760756    0.0900
11     C11     5.2091   -2.6788   -5.8562 C.3      1 ZINC000164760756   -0.1300
12     C12     6.1009   -2.0203   -6.9166 C.3      1 ZINC000164760756   -0.0900
13     H13     6.5884   -1.1450   -6.4896 H        1 ZINC000164760756    0.1000
14     C14     7.1383   -2.9935   -7.3988 C.2      1 ZINC000164760756    0.5100
15     O15     6.8856   -4.1767   -7.4834 O.2      1 ZINC000164760756   -0.4500
16     N16     8.3801   -2.5148   -7.7427 N.am     1 ZINC000164760756   -0.7000
17     C17     9.2232   -3.5523   -8.3705 C.3      1 ZINC000164760756    0.1300
18     C18     8.4517   -4.6336   -9.0883 C.2      1 ZINC000164760756    0.5900
19     O19     8.8037   -5.7908   -8.9991 O.2      1 ZINC000164760756   -0.6200
20     N20     7.3718   -4.3128   -9.8282 N.pl3    1 ZINC000164760756   -1.1100
21     S21     6.5256   -5.4988  -10.6155 S.o2     1 ZINC000164760756    2.5800
22     O22     7.4510   -6.0229  -11.5578 O.2      1 ZINC000164760756   -1.0200
23     O23     6.0047   -6.3097   -9.5712 O.2      1 ZINC000164760756   -1.0000
24     C24     5.1873   -4.6139  -11.4620 C.3      1 ZINC000164760756   -0.6500
25     C25     5.2379   -4.5509  -12.9899 C.3      1 ZINC000164760756   -0.1300
26     C26     4.2079   -5.4436  -12.2948 C.3      1 ZINC000164760756   -0.1500
27     C27    10.4792   -3.9910   -7.6192 C.3      1 ZINC000164760756   -0.1700
28     C28    10.5985   -3.1692   -8.9051 C.3      1 ZINC000164760756   -0.1100
29     H29    10.9544   -3.7050   -9.7934 H        1 ZINC000164760756    0.1200
30     C30    11.1098   -1.7628   -8.7569 C.2      1 ZINC000164760756   -0.1400
31     C31    10.3817   -0.7204   -9.0484 C.2      1 ZINC000164760756   -0.1500
32     C32     8.9652   -0.8662   -9.5406 C.3      1 ZINC000164760756   -0.1700
33     C33     8.1387    0.3145   -9.0168 C.3      1 ZINC000164760756   -0.1500
34     C34     7.7388    1.2178  -10.1858 C.3      1 ZINC000164760756   -0.1300
35     C35     6.2129    1.3743  -10.2286 C.3      1 ZINC000164760756    0.1100
36     N36     5.6442    0.0572   -9.8582 N.am     1 ZINC000164760756   -0.6200
37     C37     5.1788   -0.9000  -10.8649 C.3      1 ZINC000164760756    0.0800
38     C38     5.5813   -0.2090   -8.5218 C.2      1 ZINC000164760756    0.5400
39     O39     5.8263    0.6542   -7.7058 O.2      1 ZINC000164760756   -0.5300
40     C40     5.2010   -1.5963   -8.0823 C.3      1 ZINC000164760756   -0.1100
41     H41     5.3149   -2.3018   -8.9043 H        1 ZINC000164760756    0.1200
42     C42     3.7538   -1.6290   -7.5777 C.3      1 ZINC000164760756   -0.1000
43     C43     2.7658   -3.8379   -4.1707 C.ar     1 ZINC000164760756   -0.2800
44     C44     2.2115   -4.5804   -3.1193 C.ar     1 ZINC000164760756    0.2700
45     C45     2.4778   -6.0320   -3.0417 C.2      1 ZINC000164760756    0.0900
46     N46     2.0219   -6.8361   -2.1240 N.2      1 ZINC000164760756   -0.4200
47     C47     2.3622   -8.0989   -2.2139 C.2      1 ZINC000164760756    0.0700
48     C48     1.8981   -9.1262   -1.2138 C.3      1 ZINC000164760756   -0.0200
49     C49     0.6398   -9.8190   -1.7408 C.3      1 ZINC000164760756   -0.1400
50     C50     3.0009  -10.1651   -1.0005 C.3      1 ZINC000164760756   -0.1500
51     C51     3.1477   -8.4193   -3.2503 C.2      1 ZINC000164760756   -0.2400
52     S52     3.4566   -6.9540   -4.1800 S.3      1 ZINC000164760756    0.1400
53     N53     1.4560   -4.0120   -2.1946 N.ar     1 ZINC000164760756   -0.4600
54     C54     1.1872   -2.7027   -2.2235 C.ar     1 ZINC000164760756    0.2000
55     C55     0.3876   -2.1097   -1.2326 C.ar     1 ZINC000164760756   -0.1100
56     C56    -0.1820   -2.9471   -0.1166 C.3      1 ZINC000164760756   -0.0900
57     H57     0.0570    1.7511   -0.4117 H        1 ZINC000164760756    0.0600
58     H58    -1.3904    1.4260   -1.3953 H        1 ZINC000164760756    0.0600
59     H59    -1.5263    1.5463    0.3754 H        1 ZINC000164760756    0.1000
60     H60     0.4349    1.0868   -2.3406 H        1 ZINC000164760756    0.1400
61     H61     1.8332    0.0997   -4.0736 H        1 ZINC000164760756    0.1400
62     H62     5.3838   -2.2156   -4.8851 H        1 ZINC000164760756    0.0900
63     H63     5.4218   -3.7466   -5.8039 H        1 ZINC000164760756    0.1000
64     H64     8.6692   -1.6014   -7.5906 H        1 ZINC000164760756    0.4100
65     H65     4.7904   -3.7462  -10.9351 H        1 ZINC000164760756    0.1400
66     H66     4.8744   -3.6415  -13.4684 H        1 ZINC000164760756    0.1000
67     H67     6.0753   -5.0411  -13.4864 H        1 ZINC000164760756    0.1100
68     H68     4.3678   -6.5211  -12.3340 H        1 ZINC000164760756    0.1000
69     H69     3.1668   -5.1214  -12.3160 H        1 ZINC000164760756    0.1000
70     H70    10.7042   -3.4892   -6.6780 H        1 ZINC000164760756    0.0900
71     H71    10.7528   -5.0450   -7.6677 H        1 ZINC000164760756    0.1100
72     H72    12.1246   -1.6122   -8.3857 H        1 ZINC000164760756    0.1100
73     H73    10.8034    0.2728   -8.9289 H        1 ZINC000164760756    0.1000
74     H74     8.9548   -0.8648  -10.6305 H        1 ZINC000164760756    0.0700
75     H75     8.5437   -1.8005   -9.1698 H        1 ZINC000164760756    0.1500
76     H76     7.2416   -0.0603   -8.5241 H        1 ZINC000164760756    0.0900
77     H77     8.7329    0.8856   -8.3034 H        1 ZINC000164760756    0.0500
78     H78     8.1997    2.1975  -10.0603 H        1 ZINC000164760756    0.0600
79     H79     8.0834    0.7744  -11.1201 H        1 ZINC000164760756    0.0700
80     H80     5.8950    2.1329   -9.5134 H        1 ZINC000164760756    0.0800
81     H81     5.8936    1.6498  -11.2337 H        1 ZINC000164760756    0.0800
82     H82     6.0022   -1.5536  -11.1529 H        1 ZINC000164760756    0.0800
83     H83     4.3680   -1.4986  -10.4496 H        1 ZINC000164760756    0.0700
84     H84     4.8198   -0.3601  -11.7411 H        1 ZINC000164760756    0.0700
85     H85     3.1102   -2.0996   -8.3209 H        1 ZINC000164760756    0.0900
86     H86     3.4077   -0.6161   -7.3716 H        1 ZINC000164760756    0.0900
87     H87     3.3796   -4.3256   -4.9136 H        1 ZINC000164760756    0.1500
88     H88     1.6731   -8.6356   -0.2668 H        1 ZINC000164760756    0.0900
89     H89     0.8648  -10.3096   -2.6877 H        1 ZINC000164760756    0.0600
90     H90     0.3041  -10.5620   -1.0174 H        1 ZINC000164760756    0.0600
91     H91    -0.1459   -9.0788   -1.8927 H        1 ZINC000164760756    0.0600
92     H92     3.8973   -9.6715   -0.6251 H        1 ZINC000164760756    0.0600
93     H93     2.6652  -10.9081   -0.2771 H        1 ZINC000164760756    0.0600
94     H94     3.2258  -10.6557   -1.9475 H        1 ZINC000164760756    0.0600
95     H95     3.5234   -9.4057   -3.4793 H        1 ZINC000164760756    0.1800
96     H96     0.5186   -2.9647    0.7183 H        1 ZINC000164760756    0.0700
97     H97    -1.1286   -2.5185    0.2124 H        1 ZINC000164760756    0.0600
98     H98    -0.3477   -3.9636   -0.4734 H        1 ZINC000164760756    0.0800
@<TRIPOS>BOND
1     1     2     1
2     1     57    1
3     1     58    1
4     1     59    1
5     2     3     1
6     3     55    ar
7     3     4     ar
8     4     5     ar
9     4     60    1
10    5     6     ar
11    5     61    1
12    6     54    ar
13    6     7     ar
14    7     8     1
15    7     43    ar
16    8     9     1
17    9     10    1
18    9     42    1
19    9     11    1
20    11    12    1
21    11    62    1
22    11    63    1
23    12    13    1
24    12    40    1
25    12    14    1
26    14    15    2
27    14    16    am
28    16    17    1
29    16    64    1
30    17    28    1
31    17    18    1
32    17    27    1
33    18    19    2
34    18    20    1
35    20    21    1
36    21    22    2
37    21    23    2
38    21    24    1
39    24    26    1
40    24    25    1
41    24    65    1
42    25    26    1
43    25    66    1
44    25    67    1
45    26    68    1
46    26    69    1
47    27    28    1
48    27    70    1
49    27    71    1
50    28    29    1
51    28    30    1
52    30    31    2
53    30    72    1
54    31    32    1
55    31    73    1
56    32    33    1
57    32    74    1
58    32    75    1
59    33    34    1
60    33    76    1
61    33    77    1
62    34    35    1
63    34    78    1
64    34    79    1
65    35    36    1
66    35    80    1
67    35    81    1
68    36    37    1
69    36    38    am
70    37    82    1
71    37    83    1
72    37    84    1
73    38    39    2
74    38    40    1
75    40    41    1
76    40    42    1
77    42    85    1
78    42    86    1
79    43    44    ar
80    43    87    1
81    44    45    1
82    44    53    ar
83    45    52    1
84    45    46    2
85    46    47    1
86    47    48    1
87    47    51    2
88    48    49    1
89    48    50    1
90    48    88    1
91    49    89    1
92    49    90    1
93    49    91    1
94    50    92    1
95    50    93    1
96    50    94    1
97    51    52    1
98    51    95    1
99    53    54    ar
100   54    55    ar
101   55    56    1
102   56    96    1
103   56    97    1
104   56    98    1
@<TRIPOS>SUBSTRUCTURE
1   ZINC000164760756 1     RESIDUE    1   A     ZIN   1
