@<TRIPOS>MOLECULE
ZINC000000897256
49    50    1     0     0
SMALL
USER_CHARGES
@<TRIPOS>ATOM
1      C1      0.0383    1.3676    0.0281 C.3      1 ZINC000000897256    0.0200
2      O2      0.0500   -0.0613    0.0160 O.3      1 ZINC000000897256   -0.3100
3      C3     -1.1557   -0.6882    0.0236 C.ar     1 ZINC000000897256    0.1400
4      C4     -2.3261    0.0565    0.0366 C.ar     1 ZINC000000897256   -0.2000
5      C5     -3.5504   -0.5832    0.0439 C.ar     1 ZINC000000897256   -0.0600
6      C6     -3.6101   -1.9645    0.0387 C.ar     1 ZINC000000897256   -0.1700
7      C7     -4.9471   -2.6598    0.0471 C.3      1 ZINC000000897256   -0.0900
8      C8     -5.4118   -2.8891   -1.3924 C.3      1 ZINC000000897256    0.0300
9      H9     -5.4191   -1.9395   -1.9275 H        1 ZINC000000897256    0.1400
10     C10    -6.8226   -3.4810   -1.3848 C.3      1 ZINC000000897256   -0.1800
11     N11    -4.4935   -3.8207   -2.0609 N.4      1 ZINC000000897256   -0.5100
12     H12    -3.5501   -3.4693   -1.9938 H        1 ZINC000000897256    0.4300
13     H13    -4.5482   -4.7245   -1.6156 H        1 ZINC000000897256    0.4200
14     C14    -4.8692   -3.9482   -3.4753 C.3      1 ZINC000000897256   -0.0500
15     C15    -3.9128   -4.9185   -4.1715 C.3      1 ZINC000000897256    0.1600
16     H16    -3.9719   -5.8949   -3.6905 H        1 ZINC000000897256    0.1100
17     O17    -2.5766   -4.4208   -4.0765 O.3      1 ZINC000000897256   -0.5600
18     C18    -4.2981   -5.0493   -5.6225 C.ar     1 ZINC000000897256   -0.2800
19     C19    -3.8255   -4.1362   -6.5464 C.ar     1 ZINC000000897256   -0.0600
20     C20    -4.1757   -4.2511   -7.8793 C.ar     1 ZINC000000897256   -0.2600
21     C21    -5.0022   -5.2831   -8.2920 C.ar     1 ZINC000000897256    0.2700
22     O22    -5.3470   -5.3977   -9.6023 O.3      1 ZINC000000897256   -0.7100
23     C23    -5.4789   -6.2039   -7.3613 C.ar     1 ZINC000000897256   -0.0200
24     N24    -6.3149   -7.2503   -7.7731 N.am     1 ZINC000000897256   -0.6400
25     C25    -7.1585   -7.8251   -6.8930 C.2      1 ZINC000000897256    0.4800
26     O26    -7.2656   -7.3739   -5.7722 O.2      1 ZINC000000897256   -0.5700
27     C27    -5.1189   -6.0855   -6.0272 C.ar     1 ZINC000000897256   -0.0600
28     C28    -2.4451   -2.7091    0.0253 C.ar     1 ZINC000000897256   -0.0900
29     C29    -1.2183   -2.0741    0.0126 C.ar     1 ZINC000000897256   -0.1400
30     H30     1.0629    1.7395    0.0203 H        1 ZINC000000897256    0.1100
31     H31    -0.4880    1.7342   -0.8532 H        1 ZINC000000897256    0.0600
32     H32    -0.4689    1.7192    0.9266 H        1 ZINC000000897256    0.0600
33     H33    -2.2800    1.1356    0.0414 H        1 ZINC000000897256    0.1400
34     H34    -4.4618   -0.0038    0.0540 H        1 ZINC000000897256    0.1300
35     H35    -4.8545   -3.6191    0.5562 H        1 ZINC000000897256    0.1000
36     H36    -5.6756   -2.0399    0.5697 H        1 ZINC000000897256    0.1200
37     H37    -7.5040   -2.7897   -0.8888 H        1 ZINC000000897256    0.1000
38     H38    -7.1537   -3.6444   -2.4103 H        1 ZINC000000897256    0.0900
39     H39    -6.8153   -4.4306   -0.8497 H        1 ZINC000000897256    0.0800
40     H40    -5.8883   -4.3279   -3.5478 H        1 ZINC000000897256    0.1400
41     H41    -4.8101   -2.9719   -3.9564 H        1 ZINC000000897256    0.1300
42     H42    -2.4501   -3.5533   -4.4847 H        1 ZINC000000897256    0.3800
43     H43    -3.1813   -3.3306   -6.2264 H        1 ZINC000000897256    0.0900
44     H44    -3.8050   -3.5357   -8.5985 H        1 ZINC000000897256    0.1000
45     H45    -6.2866   -7.5610   -8.6915 H        1 ZINC000000897256    0.4100
46     H46    -7.7391   -8.6874   -7.1857 H        1 ZINC000000897256    0.1300
47     H47    -5.4864   -6.7978   -5.3033 H        1 ZINC000000897256    0.1200
48     H48    -2.4943   -3.7879    0.0208 H        1 ZINC000000897256    0.1300
49     H49    -0.3086   -2.6561    0.0021 H        1 ZINC000000897256    0.1400
@<TRIPOS>BOND
1     1     2     1
2     1     30    1
3     1     31    1
4     1     32    1
5     2     3     1
6     3     29    ar
7     3     4     ar
8     4     5     ar
9     4     33    1
10    5     6     ar
11    5     34    1
12    6     7     1
13    6     28    ar
14    7     8     1
15    7     35    1
16    7     36    1
17    8     9     1
18    8     10    1
19    8     11    1
20    10    37    1
21    10    38    1
22    10    39    1
23    11    12    1
24    11    13    1
25    11    14    1
26    14    15    1
27    14    40    1
28    14    41    1
29    15    16    1
30    15    17    1
31    15    18    1
32    17    42    1
33    18    27    ar
34    18    19    ar
35    19    20    ar
36    19    43    1
37    20    21    ar
38    20    44    1
39    21    22    1
40    21    23    ar
41    23    24    1
42    23    27    ar
43    24    25    am
44    24    45    1
45    25    26    2
46    25    46    1
47    27    47    1
48    28    29    ar
49    28    48    1
50    29    49    1
@<TRIPOS>SUBSTRUCTURE
1   ZINC000000897256 1     RESIDUE    1   A     ZIN   1
