@<TRIPOS>MOLECULE
ZINC000000402830
51    53    1     0     0
SMALL
USER_CHARGES
@<TRIPOS>ATOM
1      C1     -2.1301    2.1100   -0.7010 C.3      1 ZINC000000402830   -0.0500
2      N2     -2.4895    0.7115   -0.9711 N.4      1 ZINC000000402830   -0.3900
3      H3     -3.3511    0.4840   -0.4977 H        1 ZINC000000402830    0.4200
4      C4     -2.6540    0.5123   -2.4268 C.3      1 ZINC000000402830   -0.0100
5      C5     -1.2866   -0.0334   -2.9084 C.3      1 ZINC000000402830   -0.1400
6      C6     -0.8766   -0.9438   -1.7210 C.3      1 ZINC000000402830   -0.1400
7      C7     -1.4133   -0.1779   -0.4971 C.3      1 ZINC000000402830    0.0300
8      H8     -0.6140    0.4128   -0.0496 H        1 ZINC000000402830    0.1400
9      C9     -1.9694   -1.1646    0.5315 C.3      1 ZINC000000402830   -0.1400
10     C10    -2.4185   -0.4015    1.7793 C.3      1 ZINC000000402830    0.0400
11     O11    -2.9379   -1.3231    2.7400 O.3      1 ZINC000000402830   -0.3600
12     C12    -3.3104   -0.7206    3.9811 C.3      1 ZINC000000402830    0.2100
13     C13    -4.2875    0.4270    3.7179 C.3      1 ZINC000000402830   -0.1800
14     C14    -2.0809   -0.1857    4.6689 C.ar     1 ZINC000000402830   -0.1200
15     C15    -2.1751    0.9225    5.4898 C.ar     1 ZINC000000402830   -0.1100
16     C16    -1.0472    1.4132    6.1208 C.ar     1 ZINC000000402830   -0.1200
17     C17     0.1748    0.7954    5.9311 C.ar     1 ZINC000000402830   -0.1100
18     C18     0.2688   -0.3134    5.1109 C.ar     1 ZINC000000402830   -0.1200
19     C19    -0.8598   -0.8066    4.4834 C.ar     1 ZINC000000402830   -0.1000
20     C20    -3.9705   -1.7504    4.8613 C.ar     1 ZINC000000402830   -0.0800
21     C21    -4.4466   -1.3905    6.1083 C.ar     1 ZINC000000402830   -0.0900
22     C22    -5.0521   -2.3346    6.9160 C.ar     1 ZINC000000402830   -0.1100
23     C23    -5.1817   -3.6400    6.4764 C.ar     1 ZINC000000402830   -0.0300
24     Cl24   -5.9425   -4.8262    7.4901 Cl       1 ZINC000000402830   -0.0600
25     C25    -4.7050   -3.9996    5.2283 C.ar     1 ZINC000000402830   -0.1100
26     C26    -4.1048   -3.0533    4.4192 C.ar     1 ZINC000000402830   -0.0800
27     H27    -1.2067    2.3556   -1.2255 H        1 ZINC000000402830    0.1200
28     H28    -2.9299    2.7642   -1.0477 H        1 ZINC000000402830    0.1200
29     H29    -1.9868    2.2478    0.3708 H        1 ZINC000000402830    0.1200
30     H30    -3.4429   -0.2136   -2.6237 H        1 ZINC000000402830    0.1300
31     H31    -2.8783    1.4599   -2.9165 H        1 ZINC000000402830    0.1400
32     H32    -1.3983   -0.6133   -3.8246 H        1 ZINC000000402830    0.1200
33     H33    -0.5696    0.7761   -3.0455 H        1 ZINC000000402830    0.1000
34     H34    -1.3509   -1.9217   -1.8035 H        1 ZINC000000402830    0.1000
35     H35     0.2075   -1.0433   -1.6680 H        1 ZINC000000402830    0.1100
36     H36    -2.8204   -1.6944    0.1037 H        1 ZINC000000402830    0.1000
37     H37    -1.1945   -1.8814    0.8033 H        1 ZINC000000402830    0.1200
38     H38    -1.5674    0.1283    2.2072 H        1 ZINC000000402830    0.0700
39     H39    -3.1934    0.3153    1.5075 H        1 ZINC000000402830    0.0400
40     H40    -5.1768    0.0401    3.2204 H        1 ZINC000000402830    0.0700
41     H41    -4.5717    0.8866    4.6645 H        1 ZINC000000402830    0.0800
42     H42    -3.8101    1.1719    3.0812 H        1 ZINC000000402830    0.0600
43     H43    -3.1298    1.4052    5.6380 H        1 ZINC000000402830    0.1300
44     H44    -1.1207    2.2794    6.7616 H        1 ZINC000000402830    0.1300
45     H45     1.0560    1.1791    6.4235 H        1 ZINC000000402830    0.1300
46     H46     1.2236   -0.7959    4.9625 H        1 ZINC000000402830    0.1300
47     H47    -0.7864   -1.6728    3.8426 H        1 ZINC000000402830    0.1200
48     H48    -4.3451   -0.3715    6.4515 H        1 ZINC000000402830    0.1300
49     H49    -5.4237   -2.0534    7.8903 H        1 ZINC000000402830    0.1400
50     H50    -4.8056   -5.0185    4.8847 H        1 ZINC000000402830    0.1400
51     H51    -3.7330   -3.3338    3.4448 H        1 ZINC000000402830    0.1400
@<TRIPOS>BOND
1     1     2     1
2     1     27    1
3     1     28    1
4     1     29    1
5     2     3     1
6     2     7     1
7     2     4     1
8     4     5     1
9     4     30    1
10    4     31    1
11    5     6     1
12    5     32    1
13    5     33    1
14    6     7     1
15    6     34    1
16    6     35    1
17    7     8     1
18    7     9     1
19    9     10    1
20    9     36    1
21    9     37    1
22    10    11    1
23    10    38    1
24    10    39    1
25    11    12    1
26    12    13    1
27    12    14    1
28    12    20    1
29    13    40    1
30    13    41    1
31    13    42    1
32    14    19    ar
33    14    15    ar
34    15    16    ar
35    15    43    1
36    16    17    ar
37    16    44    1
38    17    18    ar
39    17    45    1
40    18    19    ar
41    18    46    1
42    19    47    1
43    20    26    ar
44    20    21    ar
45    21    22    ar
46    21    48    1
47    22    23    ar
48    22    49    1
49    23    24    1
50    23    25    ar
51    25    26    ar
52    25    50    1
53    26    51    1
@<TRIPOS>SUBSTRUCTURE
1   ZINC000000402830 1     RESIDUE    1   A     ZIN   1
