@<TRIPOS>MOLECULE
ZINC000118912393
49    52    1     0     0
SMALL
USER_CHARGES
@<TRIPOS>ATOM
1      C1      0.6129    1.6188    0.4369 C.3      1 ZINC000118912393   -0.1300
2      C2      0.7051    0.0916    0.4442 C.3      1 ZINC000118912393   -0.0600
3      C3     -0.6745   -0.5075    0.2488 C.3      1 ZINC000118912393   -0.1000
4      C4     -1.5875    0.0969    1.3273 C.3      1 ZINC000118912393   -0.1200
5      C5     -1.0535   -0.1666    2.7319 C.3      1 ZINC000118912393   -0.0700
6      H6     -1.0945   -1.2373    2.9320 H        1 ZINC000118912393    0.0700
7      C7      0.3954    0.3163    2.8915 C.3      1 ZINC000118912393   -0.0800
8      H8      0.4443    1.3974    2.7615 H        1 ZINC000118912393    0.0900
9      C9      0.8980   -0.0662    4.2867 C.3      1 ZINC000118912393   -0.1100
10     C10     0.0919    0.6983    5.3388 C.3      1 ZINC000118912393   -0.1000
11     C11    -1.3841    0.4191    5.1212 C.2      1 ZINC000118912393   -0.0200
12     C12    -2.1108    0.0654    6.1809 C.2      1 ZINC000118912393   -0.2400
13     C13    -3.5457   -0.1999    6.0304 C.2      1 ZINC000118912393    0.3900
14     O14    -4.1585   -0.8732    6.8324 O.2      1 ZINC000118912393   -0.4600
15     C15    -4.2225    0.4125    4.8196 C.3      1 ZINC000118912393   -0.1700
16     C16    -3.3738    0.0643    3.5976 C.3      1 ZINC000118912393   -0.1000
17     C17    -1.9361    0.5654    3.7508 C.3      1 ZINC000118912393   -0.0300
18     C18    -1.9115    2.0521    3.3902 C.3      1 ZINC000118912393   -0.1500
19     C19     1.2247   -0.3978    1.8227 C.3      1 ZINC000118912393   -0.0800
20     H20     1.1174   -1.4782    1.9190 H        1 ZINC000118912393    0.0800
21     C21     2.7069   -0.0120    1.7622 C.3      1 ZINC000118912393   -0.1100
22     C22     3.1069   -0.3932    0.3107 C.3      1 ZINC000118912393   -0.1600
23     C23     1.7922   -0.3654   -0.5231 C.3      1 ZINC000118912393    0.1100
24     H24     1.5569   -1.3642   -0.8906 H        1 ZINC000118912393    0.0600
25     O25     1.9183    0.5466   -1.6160 O.3      1 ZINC000118912393   -0.5600
26     H26     1.5998    2.0432    0.6212 H        1 ZINC000118912393    0.0500
27     H27     0.2477    1.9561   -0.5331 H        1 ZINC000118912393    0.0600
28     H28    -0.0744    1.9450    1.2174 H        1 ZINC000118912393    0.0600
29     H29    -1.0522   -0.2547   -0.7419 H        1 ZINC000118912393    0.0700
30     H30    -0.6290   -1.5903    0.3649 H        1 ZINC000118912393    0.0600
31     H31    -1.6589    1.1731    1.1702 H        1 ZINC000118912393    0.0800
32     H32    -2.5818   -0.3407    1.2372 H        1 ZINC000118912393    0.0700
33     H33     0.7708   -1.1380    4.4384 H        1 ZINC000118912393    0.0700
34     H34     1.9530    0.1926    4.3773 H        1 ZINC000118912393    0.0700
35     H35     0.3836    0.3661    6.3351 H        1 ZINC000118912393    0.0800
36     H36     0.2803    1.7672    5.2380 H        1 ZINC000118912393    0.0800
37     H37    -1.6433   -0.0263    7.1502 H        1 ZINC000118912393    0.1300
38     H38    -5.2240   -0.0022    4.7056 H        1 ZINC000118912393    0.0900
39     H39    -4.2795    1.4949    4.9349 H        1 ZINC000118912393    0.1000
40     H40    -3.3595   -1.0184    3.4719 H        1 ZINC000118912393    0.0700
41     H41    -3.8219    0.5172    2.7132 H        1 ZINC000118912393    0.0800
42     H42    -2.4843    2.6144    4.1277 H        1 ZINC000118912393    0.0600
43     H43    -0.8810    2.4072    3.3827 H        1 ZINC000118912393    0.0600
44     H44    -2.3518    2.1939    2.4032 H        1 ZINC000118912393    0.0700
45     H45     2.8341    1.0576    1.9290 H        1 ZINC000118912393    0.0700
46     H46     3.2850   -0.5875    2.4852 H        1 ZINC000118912393    0.0700
47     H47     3.8131    0.3359   -0.0864 H        1 ZINC000118912393    0.0700
48     H48     3.5479   -1.3898    0.2937 H        1 ZINC000118912393    0.0700
49     H49     2.6181    0.3158   -2.2421 H        1 ZINC000118912393    0.3800
@<TRIPOS>BOND
1     1     2     1
2     1     26    1
3     1     27    1
4     1     28    1
5     2     19    1
6     2     23    1
7     2     3     1
8     3     4     1
9     3     29    1
10    3     30    1
11    4     5     1
12    4     31    1
13    4     32    1
14    5     6     1
15    5     17    1
16    5     7     1
17    7     8     1
18    7     9     1
19    7     19    1
20    9     10    1
21    9     33    1
22    9     34    1
23    10    11    1
24    10    35    1
25    10    36    1
26    11    17    1
27    11    12    2
28    12    13    1
29    12    37    1
30    13    14    2
31    13    15    1
32    15    16    1
33    15    38    1
34    15    39    1
35    16    17    1
36    16    40    1
37    16    41    1
38    17    18    1
39    18    42    1
40    18    43    1
41    18    44    1
42    19    20    1
43    19    21    1
44    21    22    1
45    21    45    1
46    21    46    1
47    22    23    1
48    22    47    1
49    22    48    1
50    23    24    1
51    23    25    1
52    25    49    1
@<TRIPOS>SUBSTRUCTURE
1   ZINC000118912393 1     RESIDUE    1   A     ZIN   1
