@<TRIPOS>MOLECULE
ZINC000051133897
35    37    1     0     0
SMALL
USER_CHARGES
@<TRIPOS>ATOM
1      C1      0.6236    1.3536   -0.5587 C.3      1 ZINC000051133897    0.0900
2      N2      0.2307   -0.0042   -0.1740 N.am     1 ZINC000051133897   -0.9100
3      C3     -0.3120   -0.9012   -1.1141 C.2      1 ZINC000051133897   -0.2300
4      C4     -1.0644   -0.3820   -2.1986 C.2      1 ZINC000051133897    0.6000
5      O5     -1.0385   -0.9408   -3.2804 O.2      1 ZINC000051133897   -0.5100
6      N6     -1.8079    0.7297   -2.0320 N.am     1 ZINC000051133897   -0.6700
7      C7     -2.5988    1.2015   -3.0766 C.ar     1 ZINC000051133897    0.3700
8      C8     -2.3153    0.8182   -4.3827 C.ar     1 ZINC000051133897   -0.1900
9      C9     -3.1092    1.2944   -5.4112 C.ar     1 ZINC000051133897   -0.0600
10     C10    -4.1635    2.1408   -5.0967 C.ar     1 ZINC000051133897   -0.2200
11     C11    -4.3875    2.4803   -3.7768 C.ar     1 ZINC000051133897    0.1200
12     N12    -3.6172    2.0066   -2.8165 N.ar     1 ZINC000051133897   -0.5300
13     C13    -0.1420   -2.2379   -1.0210 C.2      1 ZINC000051133897    0.2900
14     O14    -0.7094   -3.0161   -1.9741 O.3      1 ZINC000051133897   -0.6300
15     C15     0.6178   -2.9032    0.0448 C.ar     1 ZINC000051133897    0.0200
16     C16     1.0285   -4.2318   -0.1040 C.ar     1 ZINC000051133897   -0.1000
17     C17     1.7428   -4.8463    0.9029 C.ar     1 ZINC000051133897   -0.0800
18     C18     2.0573   -4.1587    2.0617 C.ar     1 ZINC000051133897   -0.1400
19     C19     1.6549   -2.8415    2.2203 C.ar     1 ZINC000051133897   -0.0300
20     C20     0.9431   -2.2212    1.2239 C.ar     1 ZINC000051133897   -0.6500
21     S21     0.4162   -0.5467    1.3913 S.o2     1 ZINC000051133897    2.6900
22     O22     1.5060    0.1733    1.9508 O.2      1 ZINC000051133897   -0.9700
23     O23    -0.8825   -0.5798    1.9671 O.2      1 ZINC000051133897   -0.9600
24     H24     1.6923    1.3759   -0.7722 H        1 ZINC000051133897    0.0600
25     H25     0.0692    1.6541   -1.4478 H        1 ZINC000051133897    0.0800
26     H26     0.4017    2.0412    0.2575 H        1 ZINC000051133897    0.0600
27     H27    -1.7921    1.2011   -1.1844 H        1 ZINC000051133897    0.4100
28     H28    -1.4865    0.1581   -4.5917 H        1 ZINC000051133897    0.1800
29     H29    -2.9128    1.0141   -6.4356 H        1 ZINC000051133897    0.1300
30     H30    -4.8018    2.5301   -5.8761 H        1 ZINC000051133897    0.1300
31     H31    -5.2063    3.1388   -3.5274 H        1 ZINC000051133897    0.1500
32     H32     0.7866   -4.7754   -1.0053 H        1 ZINC000051133897    0.1400
33     H33     2.0590   -5.8724    0.7862 H        1 ZINC000051133897    0.1300
34     H34     2.6170   -4.6492    2.8444 H        1 ZINC000051133897    0.1300
35     H35     1.9008   -2.3052    3.1248 H        1 ZINC000051133897    0.1300
@<TRIPOS>BOND
1     1     2     1
2     1     24    1
3     1     25    1
4     1     26    1
5     2     21    am
6     2     3     1
7     3     4     1
8     3     13    2
9     4     5     2
10    4     6     am
11    6     7     1
12    6     27    1
13    7     12    ar
14    7     8     ar
15    8     9     ar
16    8     28    1
17    9     10    ar
18    9     29    1
19    10    11    ar
20    10    30    1
21    11    12    ar
22    11    31    1
23    13    14    1
24    13    15    1
25    15    20    ar
26    15    16    ar
27    16    17    ar
28    16    32    1
29    17    18    ar
30    17    33    1
31    18    19    ar
32    18    34    1
33    19    20    ar
34    19    35    1
35    20    21    1
36    21    22    2
37    21    23    2
@<TRIPOS>SUBSTRUCTURE
1   ZINC000051133897 1     RESIDUE    1   A     ZIN   1
