@<TRIPOS>MOLECULE
ZINC000003973334
46    49    1     0     0
SMALL
USER_CHARGES
@<TRIPOS>ATOM
1      C1     -0.0160    1.3310    0.0094 C.2      1 ZINC000003973334   -0.1500
2      C2      0.0021   -0.0041    0.0020 C.2      1 ZINC000003973334   -0.1000
3      C3     -1.2730   -0.8234    0.0033 C.3      1 ZINC000003973334   -0.0800
4      C4     -1.1489   -1.9321    1.0554 C.3      1 ZINC000003973334   -0.0700
5      H5     -1.0690   -1.4900    2.0486 H        1 ZINC000003973334    0.0900
6      C6     -2.3766   -2.8239    0.9878 C.3      1 ZINC000003973334   -0.0800
7      H7     -2.4444   -3.3061    0.0126 H        1 ZINC000003973334    0.0800
8      C8     -3.7055   -2.1455    1.3461 C.3      1 ZINC000003973334   -0.1100
9      C9     -4.5869   -3.3447    1.7899 C.3      1 ZINC000003973334   -0.1800
10     C10    -3.6316   -4.4512    2.2253 C.2      1 ZINC000003973334    0.3800
11     O11    -3.9248   -5.5694    2.5747 O.2      1 ZINC000003973334   -0.4400
12     C12    -2.2398   -3.8835    2.1134 C.3      1 ZINC000003973334   -0.1200
13     C13    -1.8678   -3.1678    3.4135 C.3      1 ZINC000003973334   -0.1500
14     C14    -1.1361   -4.8502    1.7298 C.3      1 ZINC000003973334   -0.1000
15     C15     0.1735   -4.0480    1.6989 C.3      1 ZINC000003973334   -0.1200
16     C16     0.0945   -2.7873    0.7661 C.3      1 ZINC000003973334   -0.0700
17     H17    -0.0045   -3.1127   -0.2694 H        1 ZINC000003973334    0.0700
18     C18     1.3865   -1.9789    0.9191 C.3      1 ZINC000003973334   -0.0100
19     C19     1.4647   -1.4973    2.3692 C.3      1 ZINC000003973334   -0.1400
20     C20     2.5859   -2.8282    0.6752 C.2      1 ZINC000003973334   -0.0700
21     C21     3.5778   -2.4912   -0.1330 C.2      1 ZINC000003973334   -0.2200
22     C22     3.5346   -1.2165   -0.8707 C.2      1 ZINC000003973334    0.4100
23     O23     4.4802   -0.8583   -1.5501 O.2      1 ZINC000003973334   -0.4600
24     C24     2.3308   -0.3900   -0.7699 C.2      1 ZINC000003973334   -0.2200
25     C25     1.2648   -0.7678   -0.0141 C.2      1 ZINC000003973334    0.0100
26     H26     0.9118    1.8837    0.0035 H        1 ZINC000003973334    0.1100
27     H27    -0.9586    1.8582    0.0167 H        1 ZINC000003973334    0.1100
28     H28    -2.1193   -0.1813    0.2476 H        1 ZINC000003973334    0.0800
29     H29    -1.4220   -1.2685   -0.9804 H        1 ZINC000003973334    0.0800
30     H30    -3.5711   -1.4397    2.1657 H        1 ZINC000003973334    0.0800
31     H31    -4.1350   -1.6512    0.4747 H        1 ZINC000003973334    0.0800
32     H32    -5.2234   -3.0513    2.6247 H        1 ZINC000003973334    0.1000
33     H33    -5.1991   -3.6870    0.9556 H        1 ZINC000003973334    0.1000
34     H34    -1.8781   -3.8818    4.2371 H        1 ZINC000003973334    0.0600
35     H35    -0.8711   -2.7369    3.3187 H        1 ZINC000003973334    0.0800
36     H36    -2.5892   -2.3749    3.6111 H        1 ZINC000003973334    0.0600
37     H37    -1.0664   -5.6475    2.4697 H        1 ZINC000003973334    0.0800
38     H38    -1.3370   -5.2721    0.7450 H        1 ZINC000003973334    0.0700
39     H39     0.3827   -3.6719    2.7003 H        1 ZINC000003973334    0.0700
40     H40     0.9858   -4.7070    1.3924 H        1 ZINC000003973334    0.0700
41     H41     1.4746   -2.3581    3.0379 H        1 ZINC000003973334    0.0700
42     H42     2.3763   -0.9168    2.5107 H        1 ZINC000003973334    0.0600
43     H43     0.5988   -0.8740    2.5922 H        1 ZINC000003973334    0.0700
44     H44     2.6497   -3.7758    1.1893 H        1 ZINC000003973334    0.1300
45     H45     4.4229   -3.1531   -0.2522 H        1 ZINC000003973334    0.1400
46     H46     2.2522    0.5217   -1.3436 H        1 ZINC000003973334    0.1300
@<TRIPOS>BOND
1     1     2     2
2     1     26    1
3     1     27    1
4     2     25    1
5     2     3     1
6     3     4     1
7     3     28    1
8     3     29    1
9     4     5     1
10    4     16    1
11    4     6     1
12    6     7     1
13    6     12    1
14    6     8     1
15    8     9     1
16    8     30    1
17    8     31    1
18    9     10    1
19    9     32    1
20    9     33    1
21    10    11    2
22    10    12    1
23    12    13    1
24    12    14    1
25    13    34    1
26    13    35    1
27    13    36    1
28    14    15    1
29    14    37    1
30    14    38    1
31    15    16    1
32    15    39    1
33    15    40    1
34    16    17    1
35    16    18    1
36    18    25    1
37    18    19    1
38    18    20    1
39    19    41    1
40    19    42    1
41    19    43    1
42    20    21    2
43    20    44    1
44    21    22    1
45    21    45    1
46    22    23    2
47    22    24    1
48    24    25    2
49    24    46    1
@<TRIPOS>SUBSTRUCTURE
1   ZINC000003973334 1     RESIDUE    1   A     ZIN   1
