@<TRIPOS>MOLECULE
ZINC000000537752
50   52    0    0    0
SMALL
USER_CHARGES
NO_NAME
@<TRIPOS>ATOM
1 C1        0.7534    -1.4061     1.0290 C.3    1 <0>      -0.1500
2 C2       -0.5136    -1.8171     0.2760 C.3    1 <0>       0.0500
3 N3       -1.4234    -0.6674     0.1846 N.3    1 <0>      -0.5300
4 C4       -2.4580    -0.8946    -0.8333 C.3    1 <0>       0.0400
5 C5       -1.8077    -0.9550    -2.2168 C.3    1 <0>      -0.1500
6 C6       -2.0263    -0.3680     1.4903 C.3    1 <0>       0.0400
7 C7       -2.6404     1.0330     1.4592 C.3    1 <0>       0.1100
8 N8       -3.2614     1.3228     2.7541 N.am   1 <0>      -0.5500
9 C9       -4.6247     1.0988     2.8735 C.ar   1 <0>       0.1900
10 C10      -5.1409    -0.0489     2.2692 C.ar   1 <0>      -0.1400
11 C11      -6.4859    -0.3379     2.3431 C.ar   1 <0>      -0.0600
12 C12      -7.3433     0.5134     3.0218 C.ar   1 <0>      -0.0500
13 Cl13     -9.0377     0.1469     3.1131 Cl     1 <0>      -0.0500
14 C14      -6.8514     1.6497     3.6240 C.ar   1 <0>      -0.0500
15 C15      -5.4840     1.9565     3.5575 C.ar   1 <0>      -0.1200
16 C16      -5.0271     3.1843     4.2275 C.2    1 <0>       0.2700
17 C17      -5.8845     4.3859     4.1143 C.ar   1 <0>      -0.0900
18 C18      -6.4893     4.9245     5.2499 C.ar   1 <0>      -0.0600
19 C19      -7.2873     6.0443     5.1383 C.ar   1 <0>      -0.1300
20 C20      -7.4894     6.6346     3.9032 C.ar   1 <0>      -0.0800
21 C21      -6.8938     6.1076     2.7720 C.ar   1 <0>      -0.1500
22 C22      -6.0870     4.9891     2.8702 C.ar   1 <0>       0.1300
23 F23      -5.5052     4.4743     1.7649 F      1 <0>      -0.1300
24 N24      -3.9386     3.2916     4.9044 N.2    1 <0>      -0.4700
25 C25      -3.0190     2.1668     5.0709 C.3    1 <0>       0.0200
26 C26      -2.4718     1.7755     3.7255 C.2    1 <0>       0.5100
27 O27      -1.2817     1.8822     3.5181 O.2    1 <0>      -0.5000
28 H28       1.4303    -2.2580     1.0932 H      1 <0>       0.0600
29 H29       1.2442    -0.5914     0.4967 H      1 <0>       0.0600
30 H30       0.4882    -1.0762     2.0334 H      1 <0>       0.0500
31 H31      -0.2479    -2.1509    -0.7270 H      1 <0>       0.0800
32 H32      -1.0066    -2.6290     0.8105 H      1 <0>       0.0300
33 H33      -2.9674    -1.8365    -0.6297 H      1 <0>       0.0300
34 H34      -3.1797    -0.0781    -0.8063 H      1 <0>       0.0700
35 H35      -1.2984    -0.0131    -2.4204 H      1 <0>       0.0600
36 H36      -1.0861    -1.7715    -2.2438 H      1 <0>       0.0600
37 H37      -2.5754    -1.1236    -2.9721 H      1 <0>       0.0600
38 H38      -2.8033    -1.1006     1.7083 H      1 <0>       0.0400
39 H39      -1.2589    -0.4113     2.2632 H      1 <0>       0.0900
40 H40      -1.8604     1.7673     1.2579 H      1 <0>       0.1000
41 H41      -3.3959     1.0812     0.6750 H      1 <0>       0.0900
42 H42      -4.4791    -0.7170     1.7379 H      1 <0>       0.1400
43 H43      -6.8727    -1.2290     1.8712 H      1 <0>       0.1500
44 H44      -7.5236     2.3104     4.1513 H      1 <0>       0.1500
45 H45      -6.3335     4.4654     6.2150 H      1 <0>       0.1400
46 H46      -7.7560     6.4612     6.0174 H      1 <0>       0.1400
47 H47      -8.1155     7.5109     3.8223 H      1 <0>       0.1400
48 H48      -7.0558     6.5729     1.8110 H      1 <0>       0.1400
49 H49      -2.1993     2.4595     5.7271 H      1 <0>       0.1400
50 H50      -3.5518     1.3207     5.5047 H      1 <0>       0.1000
@<TRIPOS>BOND
1    1    2 1
2    1   28 1
3    1   29 1
4    1   30 1
5    2    3 1
6    2   31 1
7    2   32 1
8    3    4 1
9    3    6 1
10    4    5 1
11    4   33 1
12    4   34 1
13    5   35 1
14    5   36 1
15    5   37 1
16    6    7 1
17    6   38 1
18    6   39 1
19    7    8 1
20    7   40 1
21    7   41 1
22    8   26 am
23    8    9 1
24    9   15 ar
25    9   10 ar
26   10   11 ar
27   10   42 1
28   11   12 ar
29   11   43 1
30   12   13 1
31   12   14 ar
32   14   15 ar
33   14   44 1
34   15   16 1
35   16   17 1
36   16   24 2
37   17   22 ar
38   17   18 ar
39   18   19 ar
40   18   45 1
41   19   20 ar
42   19   46 1
43   20   21 ar
44   20   47 1
45   21   22 ar
46   21   48 1
47   22   23 1
48   24   25 1
49   25   26 1
50   25   49 1
51   25   50 1
52   26   27 2
