@<TRIPOS>MOLECULE
ZINC000000006481
20    21    1     0     0
SMALL
USER_CHARGES
@<TRIPOS>ATOM
1      N1     -0.0166    1.3766    0.0096 N.pl3    1 ZINC000000006481   -0.8100
2      C2      0.0021   -0.0041    0.0020 C.2      1 ZINC000000006481    0.3800
3      N3     -1.0456   -0.7536    0.0024 N.2      1 ZINC000000006481   -0.5400
4      C4     -0.8645   -2.0911   -0.0064 C.ar     1 ZINC000000006481    0.1200
5      C5     -1.8372   -3.1123   -0.0076 C.ar     1 ZINC000000006481   -0.0400
6      C6     -1.4618   -4.4321   -0.0163 C.ar     1 ZINC000000006481   -0.1600
7      C7     -0.1163   -4.7841   -0.0246 C.ar     1 ZINC000000006481    0.1000
8      O8      0.2450   -6.0951   -0.0337 O.3      1 ZINC000000006481   -0.3100
9      C9     -0.8101   -7.0588   -0.0341 C.3      1 ZINC000000006481    0.6100
10     F10    -1.6045   -6.8800   -1.1717 F        1 ZINC000000006481   -0.1600
11     F11    -0.2649   -8.3472   -0.0439 F        1 ZINC000000006481   -0.1300
12     F12    -1.5938   -6.8928    1.1128 F        1 ZINC000000006481   -0.1600
13     C13     0.8526   -3.7989   -0.0241 C.ar     1 ZINC000000006481   -0.0600
14     C14     0.4849   -2.4561   -0.0148 C.ar     1 ZINC000000006481   -0.1700
15     S15     1.4589   -0.9877   -0.0172 S.3      1 ZINC000000006481    0.0700
16     H16     0.8167    1.8729    0.0043 H        1 ZINC000000006481    0.4200
17     H17    -0.8632    1.8501    0.0162 H        1 ZINC000000006481    0.4200
18     H18    -2.8858   -2.8535   -0.0012 H        1 ZINC000000006481    0.1500
19     H19    -2.2173   -5.2038   -0.0164 H        1 ZINC000000006481    0.1400
20     H20     1.8977   -4.0712   -0.0306 H        1 ZINC000000006481    0.1500
@<TRIPOS>BOND
1     1     2     1
2     1     16    1
3     1     17    1
4     2     15    1
5     2     3     2
6     3     4     1
7     4     14    ar
8     4     5     ar
9     5     6     ar
10    5     18    1
11    6     7     ar
12    6     19    1
13    7     8     1
14    7     13    ar
15    8     9     1
16    9     10    1
17    9     11    1
18    9     12    1
19    13    14    ar
20    13    20    1
21    14    15    1
@<TRIPOS>SUBSTRUCTURE
1   ZINC000000006481 1     RESIDUE    1   A     ZIN   1
