@<TRIPOS>MOLECULE
ZINC000022010375
32    33    1     0     0
SMALL
USER_CHARGES
@<TRIPOS>ATOM
1      C1     -0.0187    1.5258    0.0104 C.3      1 ZINC000022010375   -0.1800
2      C2      0.0021   -0.0041    0.0020 C.3      1 ZINC000022010375    0.0000
3      H3      0.5122   -0.3559   -0.8947 H        1 ZINC000022010375    0.1500
4      C4     -1.4338   -0.5343    0.0138 C.3      1 ZINC000022010375    0.1300
5      H5     -1.9566   -0.1498    0.8896 H        1 ZINC000022010375    0.0900
6      C6     -2.1466   -0.0847   -1.2355 C.ar     1 ZINC000022010375   -0.1100
7      C7     -2.0313   -0.8208   -2.3999 C.ar     1 ZINC000022010375   -0.0900
8      C8     -2.6852   -0.4084   -3.5459 C.ar     1 ZINC000022010375   -0.1200
9      C9     -3.4546    0.7398   -3.5274 C.ar     1 ZINC000022010375   -0.1000
10     C10    -3.5707    1.4754   -2.3628 C.ar     1 ZINC000022010375   -0.1200
11     C11    -2.9203    1.0607   -1.2156 C.ar     1 ZINC000022010375   -0.1000
12     O12    -1.4083   -1.9636    0.0622 O.3      1 ZINC000022010375   -0.3500
13     C13    -0.7067   -2.4871    1.1933 C.3      1 ZINC000022010375    0.0400
14     C14     0.7305   -1.9605    1.1837 C.3      1 ZINC000022010375   -0.0400
15     N15     0.7119   -0.4912    1.1928 N.4      1 ZINC000022010375   -0.3900
16     H16     0.2389   -0.1659    2.0226 H        1 ZINC000022010375    0.4200
17     C17     2.0904    0.0162    1.1840 C.3      1 ZINC000022010375   -0.0500
18     H18     1.0039    1.9031    0.0027 H        1 ZINC000022010375    0.0900
19     H19    -0.5459    1.8868   -0.8726 H        1 ZINC000022010375    0.1100
20     H20    -0.5289    1.8773    0.9072 H        1 ZINC000022010375    0.0800
21     H21    -1.4301   -1.7179   -2.4143 H        1 ZINC000022010375    0.1300
22     H22    -2.5945   -0.9831   -4.4558 H        1 ZINC000022010375    0.1300
23     H23    -3.9649    1.0624   -4.4229 H        1 ZINC000022010375    0.1300
24     H24    -4.1716    2.3727   -2.3484 H        1 ZINC000022010375    0.1300
25     H25    -3.0110    1.6354   -0.3057 H        1 ZINC000022010375    0.1300
26     H26    -1.2047   -2.1694    2.1094 H        1 ZINC000022010375    0.0800
27     H27    -0.6958   -3.5758    1.1430 H        1 ZINC000022010375    0.1400
28     H28     1.2565   -2.3229    2.0669 H        1 ZINC000022010375    0.1400
29     H29     1.2405   -2.3118    0.2867 H        1 ZINC000022010375    0.1400
30     H30     2.6012   -0.3351    0.2874 H        1 ZINC000022010375    0.1200
31     H31     2.0765    1.1061    1.1908 H        1 ZINC000022010375    0.1300
32     H32     2.6165   -0.3459    2.0673 H        1 ZINC000022010375    0.1300
@<TRIPOS>BOND
1     1     2     1
2     1     18    1
3     1     19    1
4     1     20    1
5     2     3     1
6     2     15    1
7     2     4     1
8     4     5     1
9     4     6     1
10    4     12    1
11    6     11    ar
12    6     7     ar
13    7     8     ar
14    7     21    1
15    8     9     ar
16    8     22    1
17    9     10    ar
18    9     23    1
19    10    11    ar
20    10    24    1
21    11    25    1
22    12    13    1
23    13    14    1
24    13    26    1
25    13    27    1
26    14    15    1
27    14    28    1
28    14    29    1
29    15    16    1
30    15    17    1
31    17    30    1
32    17    31    1
33    17    32    1
@<TRIPOS>SUBSTRUCTURE
1   ZINC000022010375 1     RESIDUE    1   A     ZIN   1
