@<TRIPOS>MOLECULE
ZINC000000643046
76    79    1     0     0
SMALL
USER_CHARGES
@<TRIPOS>ATOM
1      O1     -0.0173    1.4248    0.0099 O.3      1 ZINC000000643046   -0.5400
2      C2      0.0021   -0.0041    0.0020 C.3      1 ZINC000000643046    0.0600
3      C3     -1.4333   -0.5336    0.0129 C.3      1 ZINC000000643046    0.1300
4      N4     -2.1054   -0.1483   -1.2305 N.pl3    1 ZINC000000643046   -0.5800
5      C5     -2.0486   -1.0315   -2.3980 C.3      1 ZINC000000643046    0.1300
6      C6     -3.2303   -2.0027   -2.3607 C.3      1 ZINC000000643046    0.0600
7      O7     -4.4512   -1.2729   -2.4978 O.3      1 ZINC000000643046   -0.5500
8      C8     -2.7946    1.0512   -1.3023 C.ar     1 ZINC000000643046    0.5800
9      N9     -3.3995    1.3722   -2.4423 N.ar     1 ZINC000000643046   -0.5500
10     C10    -4.0738    2.5046   -2.5716 C.ar     1 ZINC000000643046    0.4200
11     N11    -4.6979    2.8260   -3.7606 N.3      1 ZINC000000643046   -0.4500
12     C12    -6.1274    3.0882   -3.5506 C.3      1 ZINC000000643046    0.0600
13     C13    -6.7543    3.5808   -4.8568 C.3      1 ZINC000000643046   -0.1200
14     C14    -6.5655    2.5163   -5.9411 C.3      1 ZINC000000643046   -0.1200
15     C15    -5.0711    2.2266   -6.1062 C.3      1 ZINC000000643046   -0.1200
16     C16    -4.4929    1.7733   -4.7637 C.3      1 ZINC000000643046    0.0700
17     C17    -4.1384    3.3776   -1.4575 C.ar     1 ZINC000000643046    0.0700
18     N18    -4.7938    4.5421   -1.4907 N.ar     1 ZINC000000643046   -0.5500
19     C19    -4.8235    5.3201   -0.4250 C.ar     1 ZINC000000643046    0.5700
20     N20    -5.5127    6.5196   -0.4968 N.pl3    1 ZINC000000643046   -0.5700
21     C21    -6.1898    6.9021   -1.7383 C.3      1 ZINC000000643046    0.1400
22     C22    -7.6253    6.3729   -1.7203 C.3      1 ZINC000000643046    0.0600
23     O23    -8.3576    7.0175   -0.6762 O.3      1 ZINC000000643046   -0.5700
24     C24    -5.5646    7.4056    0.6688 C.3      1 ZINC000000643046    0.1400
25     C25    -4.3829    8.3764    0.6244 C.3      1 ZINC000000643046    0.0600
26     O26    -4.5147    9.2357   -0.5098 O.3      1 ZINC000000643046   -0.5700
27     N27    -4.2189    4.9990    0.7152 N.ar     1 ZINC000000643046   -0.5800
28     C28    -3.5449    3.8663    0.8446 C.ar     1 ZINC000000643046    0.4300
29     N29    -2.9219    3.5444    2.0340 N.3      1 ZINC000000643046   -0.4400
30     C30    -3.3786    2.2403    2.5312 C.3      1 ZINC000000643046    0.0600
31     C31    -2.5650    1.8509    3.7675 C.3      1 ZINC000000643046   -0.1100
32     C32    -2.7437    2.9210    4.8480 C.3      1 ZINC000000643046   -0.1300
33     C33    -2.3065    4.2777    4.2888 C.3      1 ZINC000000643046   -0.1200
34     C34    -3.1275    4.5968    3.0374 C.3      1 ZINC000000643046    0.0600
35     C35    -3.4804    2.9933   -0.2695 C.ar     1 ZINC000000643046    0.0700
36     N36    -2.8288    1.8267   -0.2349 N.ar     1 ZINC000000643046   -0.5200
37     H37     0.8606    1.8301    0.0037 H        1 ZINC000000643046    0.3700
38     H38     0.5123   -0.3556   -0.8948 H        1 ZINC000000643046    0.0400
39     H39     0.5293   -0.3651    0.8851 H        1 ZINC000000643046    0.0500
40     H40    -1.4190   -1.6203    0.0965 H        1 ZINC000000643046    0.0800
41     H41    -1.9701   -0.1109    0.8621 H        1 ZINC000000643046    0.0900
42     H42    -2.0980   -0.4341   -3.3083 H        1 ZINC000000643046    0.0900
43     H43    -1.1152   -1.5942   -2.3828 H        1 ZINC000000643046    0.0900
44     H44    -3.1398   -2.7166   -3.1794 H        1 ZINC000000643046    0.0500
45     H45    -3.2313   -2.5374   -1.4108 H        1 ZINC000000643046    0.0400
46     H46    -5.2440   -1.8263   -2.4827 H        1 ZINC000000643046    0.3700
47     H47    -6.6223    2.1702   -3.2337 H        1 ZINC000000643046    0.0400
48     H48    -6.2475    3.8499   -2.7802 H        1 ZINC000000643046    0.1100
49     H49    -7.8186    3.7605   -4.7046 H        1 ZINC000000643046    0.0700
50     H50    -6.2692    4.5062   -5.1671 H        1 ZINC000000643046    0.0700
51     H51    -7.0835    1.6028   -5.6489 H        1 ZINC000000643046    0.0600
52     H52    -6.9723    2.8809   -6.8844 H        1 ZINC000000643046    0.0700
53     H53    -4.9327    1.4387   -6.8467 H        1 ZINC000000643046    0.0700
54     H54    -4.5594    3.1307   -6.4361 H        1 ZINC000000643046    0.0700
55     H55    -3.4260    1.5799   -4.8745 H        1 ZINC000000643046    0.0800
56     H56    -4.9955    0.8614   -4.4412 H        1 ZINC000000643046    0.0600
57     H57    -6.2043    7.9886   -1.8244 H        1 ZINC000000643046    0.0900
58     H58    -5.6566    6.4773   -2.5888 H        1 ZINC000000643046    0.1000
59     H59    -8.1009    6.5799   -2.6790 H        1 ZINC000000643046    0.0500
60     H60    -7.6137    5.2971   -1.5453 H        1 ZINC000000643046    0.0400
61     H61    -9.2782    6.7299   -0.6061 H        1 ZINC000000643046    0.3800
62     H62    -6.4979    7.9684    0.6561 H        1 ZINC000000643046    0.0900
63     H63    -5.5116    6.8103    1.5803 H        1 ZINC000000643046    0.0900
64     H64    -4.3706    8.9757    1.5348 H        1 ZINC000000643046    0.0500
65     H65    -3.4527    7.8134    0.5474 H        1 ZINC000000643046    0.0500
66     H66    -3.7986    9.8790   -0.6013 H        1 ZINC000000643046    0.3800
67     H67    -4.4342    2.3018    2.7956 H        1 ZINC000000643046    0.0400
68     H68    -3.2421    1.4876    1.7547 H        1 ZINC000000643046    0.1100
69     H69    -2.9147    0.8902    4.1455 H        1 ZINC000000643046    0.0700
70     H70    -1.5109    1.7757    3.5006 H        1 ZINC000000643046    0.0800
71     H71    -3.7920    2.9693    5.1429 H        1 ZINC000000643046    0.0600
72     H72    -2.1318    2.6697    5.7143 H        1 ZINC000000643046    0.0700
73     H73    -2.4714    5.0509    5.0392 H        1 ZINC000000643046    0.0700
74     H74    -1.2483    4.2407    4.0301 H        1 ZINC000000643046    0.0700
75     H75    -2.8087    5.5556    2.6286 H        1 ZINC000000643046    0.0900
76     H76    -4.1843    4.6472    3.2995 H        1 ZINC000000643046    0.0500
@<TRIPOS>BOND
1     1     2     1
2     1     37    1
3     2     3     1
4     2     38    1
5     2     39    1
6     3     4     1
7     3     40    1
8     3     41    1
9     4     5     1
10    4     8     1
11    5     6     1
12    5     42    1
13    5     43    1
14    6     7     1
15    6     44    1
16    6     45    1
17    7     46    1
18    8     36    ar
19    8     9     ar
20    9     10    ar
21    10    11    1
22    10    17    ar
23    11    16    1
24    11    12    1
25    12    13    1
26    12    47    1
27    12    48    1
28    13    14    1
29    13    49    1
30    13    50    1
31    14    15    1
32    14    51    1
33    14    52    1
34    15    16    1
35    15    53    1
36    15    54    1
37    16    55    1
38    16    56    1
39    17    35    ar
40    17    18    ar
41    18    19    ar
42    19    20    1
43    19    27    ar
44    20    21    1
45    20    24    1
46    21    22    1
47    21    57    1
48    21    58    1
49    22    23    1
50    22    59    1
51    22    60    1
52    23    61    1
53    24    25    1
54    24    62    1
55    24    63    1
56    25    26    1
57    25    64    1
58    25    65    1
59    26    66    1
60    27    28    ar
61    28    29    1
62    28    35    ar
63    29    34    1
64    29    30    1
65    30    31    1
66    30    67    1
67    30    68    1
68    31    32    1
69    31    69    1
70    31    70    1
71    32    33    1
72    32    71    1
73    32    72    1
74    33    34    1
75    33    73    1
76    33    74    1
77    34    75    1
78    34    76    1
79    35    36    ar
@<TRIPOS>SUBSTRUCTURE
1   ZINC000000643046 1     RESIDUE    1   A     ZIN   1
