@<TRIPOS>MOLECULE
ZINC000013298313
14    15    1     0     0
SMALL
USER_CHARGES
@<TRIPOS>ATOM
1      O1      0.0021   -0.0041    0.0020 O.2      1 ZINC000013298313   -0.5200
2      C2     -0.0144    1.2129    0.0087 C.2      1 ZINC000013298313    0.5900
3      N3     -1.1799    1.9004    0.0292 N.am     1 ZINC000013298313   -0.6700
4      C4     -1.1986    3.2606    0.0362 C.2      1 ZINC000013298313    0.4100
5      N5     -0.1371    4.0037    0.0243 N.2      1 ZINC000013298313   -0.5000
6      C6      1.1107    3.4599    0.0037 C.2      1 ZINC000013298313    0.2900
7      N7      2.3330    3.9351   -0.0118 N.2      1 ZINC000013298313   -0.2600
8      N8      3.2388    2.8678   -0.0298 N.pl3    1 ZINC000013298313   -0.4400
9      C9      2.5707    1.7042   -0.0255 C.2      1 ZINC000013298313    0.1700
10     C10     1.2288    1.9926    0.0010 C.2      1 ZINC000013298313   -0.3600
11     H11    -2.0188    1.4135    0.0388 H        1 ZINC000013298313    0.4200
12     H12    -2.1598    3.7527    0.0524 H        1 ZINC000013298313    0.2100
13     H13     4.2046    2.9562   -0.0439 H        1 ZINC000013298313    0.4500
14     H14     3.0100    0.7176   -0.0367 H        1 ZINC000013298313    0.2000
@<TRIPOS>BOND
1     1     2     2
2     2     10    1
3     2     3     am
4     3     4     1
5     3     11    1
6     4     5     2
7     4     12    1
8     5     6     1
9     6     10    1
10    6     7     2
11    7     8     1
12    8     9     1
13    8     13    1
14    9     10    2
15    9     14    1
@<TRIPOS>SUBSTRUCTURE
1   ZINC000013298313 1     RESIDUE    1   A     ZIN   1
