@<TRIPOS>MOLECULE
ZINC000000968273
54    56    1     0     0
SMALL
USER_CHARGES
@<TRIPOS>ATOM
1      O1     -0.0786    1.4191   -0.0979 O.3      1 ZINC000000968273   -0.5500
2      C2      0.0021   -0.0041    0.0020 C.3      1 ZINC000000968273    0.1900
3      C3      0.8248   -0.5515   -1.1660 C.3      1 ZINC000000968273   -0.1800
4      C4      0.1524   -0.1703   -2.4864 C.3      1 ZINC000000968273   -0.0100
5      N5      0.9424   -0.6959   -3.6078 N.4      1 ZINC000000968273   -0.3800
6      H6      1.8935   -0.3681   -3.5307 H        1 ZINC000000968273    0.4200
7      C7      0.3656   -0.2263   -4.8732 C.3      1 ZINC000000968273   -0.0100
8      C8      1.2313   -0.7038   -6.0411 C.3      1 ZINC000000968273   -0.1500
9      C9      1.2829   -2.2344   -6.0387 C.3      1 ZINC000000968273   -0.1400
10     C10     1.8164   -2.7153   -4.6862 C.3      1 ZINC000000968273   -0.1500
11     C11     0.9275   -2.1632   -3.5696 C.3      1 ZINC000000968273   -0.0100
12     C12     0.6644   -0.3796    1.3026 C.ar     1 ZINC000000968273   -0.1200
13     C13     1.2604   -1.6190    1.4420 C.ar     1 ZINC000000968273   -0.1200
14     C14     1.8680   -1.9634    2.6350 C.ar     1 ZINC000000968273   -0.1200
15     C15     1.8798   -1.0683    3.6883 C.ar     1 ZINC000000968273   -0.1100
16     C16     1.2845    0.1715    3.5485 C.ar     1 ZINC000000968273   -0.1100
17     C17     0.6808    0.5175    2.3541 C.ar     1 ZINC000000968273   -0.1000
18     C18    -1.4067   -0.5992   -0.0433 C.3      1 ZINC000000968273   -0.0700
19     C19    -1.3184   -2.1249    0.0285 C.3      1 ZINC000000968273   -0.1200
20     C20    -2.7272   -2.7200   -0.0169 C.3      1 ZINC000000968273   -0.1200
21     C21    -3.5391   -2.1997    1.1709 C.3      1 ZINC000000968273   -0.1200
22     C22    -3.6274   -0.6739    1.0991 C.3      1 ZINC000000968273   -0.1200
23     C23    -2.2186   -0.0788    1.1445 C.3      1 ZINC000000968273   -0.1100
24     H24     0.7796    1.8643   -0.0758 H        1 ZINC000000968273    0.3800
25     H25     1.8285   -0.1276   -1.1337 H        1 ZINC000000968273    0.0900
26     H26     0.8863   -1.6371   -1.0898 H        1 ZINC000000968273    0.1000
27     H27    -0.8512   -0.5943   -2.5187 H        1 ZINC000000968273    0.1300
28     H28     0.0909    0.9153   -2.5626 H        1 ZINC000000968273    0.1400
29     H29    -0.6430   -0.6249   -4.9824 H        1 ZINC000000968273    0.1300
30     H30     0.3266    0.8630   -4.8721 H        1 ZINC000000968273    0.1300
31     H31     0.8004   -0.3556   -6.9798 H        1 ZINC000000968273    0.1100
32     H32     2.2401   -0.3055   -5.9331 H        1 ZINC000000968273    0.0900
33     H33     0.2810   -2.6331   -6.1980 H        1 ZINC000000968273    0.0800
34     H34     1.9439   -2.5780   -6.8344 H        1 ZINC000000968273    0.0900
35     H35     1.8036   -3.8048   -4.6565 H        1 ZINC000000968273    0.1100
36     H36     2.8373   -2.3587   -4.5500 H        1 ZINC000000968273    0.0900
37     H37     1.3036   -2.5033   -2.6047 H        1 ZINC000000968273    0.1300
38     H38    -0.0928   -2.5211   -3.7074 H        1 ZINC000000968273    0.1300
39     H39     1.2512   -2.3183    0.6191 H        1 ZINC000000968273    0.1200
40     H40     2.3330   -2.9320    2.7442 H        1 ZINC000000968273    0.1300
41     H41     2.3538   -1.3377    4.6206 H        1 ZINC000000968273    0.1300
42     H42     1.2935    0.8707    4.3716 H        1 ZINC000000968273    0.1300
43     H43     0.2157    1.4861    2.2449 H        1 ZINC000000968273    0.1300
44     H44    -1.8949   -0.3068   -0.9731 H        1 ZINC000000968273    0.0800
45     H45    -0.7400   -2.4956   -0.8178 H        1 ZINC000000968273    0.0500
46     H46    -0.8303   -2.4173    0.9582 H        1 ZINC000000968273    0.0800
47     H47    -3.2153   -2.4277   -0.9466 H        1 ZINC000000968273    0.0600
48     H48    -2.6643   -3.8070    0.0343 H        1 ZINC000000968273    0.0700
49     H49    -4.5428   -2.6237    1.1386 H        1 ZINC000000968273    0.0700
50     H50    -3.0510   -2.4920    2.1006 H        1 ZINC000000968273    0.0600
51     H51    -4.1156   -0.3816    0.1694 H        1 ZINC000000968273    0.0600
52     H52    -4.2059   -0.3032    1.9454 H        1 ZINC000000968273    0.0700
53     H53    -1.7305   -0.3712    2.0742 H        1 ZINC000000968273    0.0700
54     H54    -2.2816    1.0081    1.0933 H        1 ZINC000000968273    0.0700
@<TRIPOS>BOND
1     1     2     1
2     1     24    1
3     2     3     1
4     2     12    1
5     2     18    1
6     3     4     1
7     3     25    1
8     3     26    1
9     4     5     1
10    4     27    1
11    4     28    1
12    5     6     1
13    5     11    1
14    5     7     1
15    7     8     1
16    7     29    1
17    7     30    1
18    8     9     1
19    8     31    1
20    8     32    1
21    9     10    1
22    9     33    1
23    9     34    1
24    10    11    1
25    10    35    1
26    10    36    1
27    11    37    1
28    11    38    1
29    12    17    ar
30    12    13    ar
31    13    14    ar
32    13    39    1
33    14    15    ar
34    14    40    1
35    15    16    ar
36    15    41    1
37    16    17    ar
38    16    42    1
39    17    43    1
40    18    23    1
41    18    19    1
42    18    44    1
43    19    20    1
44    19    45    1
45    19    46    1
46    20    21    1
47    20    47    1
48    20    48    1
49    21    22    1
50    21    49    1
51    21    50    1
52    22    23    1
53    22    51    1
54    22    52    1
55    23    53    1
56    23    54    1
@<TRIPOS>SUBSTRUCTURE
1   ZINC000000968273 1     RESIDUE    1   A     ZIN   1
