@<TRIPOS>MOLECULE
ZINC000021303210
27   29    0    0    0
SMALL
USER_CHARGES
NO_NAME
@<TRIPOS>ATOM
1 Br1      -0.0092     0.0100    -0.0364 Br     1 <0>      -0.0200
2 C2       -0.0238     1.9009    -0.0245 C.ar   1 <0>      -0.1300
3 C3       -1.2427     2.5985    -0.0214 C.ar   1 <0>       0.1300
4 N4       -2.4108     1.9459    -0.0261 N.ar   1 <0>      -0.4200
5 C5       -3.5357     2.6244    -0.0227 C.ar   1 <0>       0.0900
6 C6       -3.5260     4.0204    -0.0146 C.ar   1 <0>       0.0600
7 N7       -2.3924     4.6840    -0.0098 N.ar   1 <0>      -0.4100
8 C8       -1.2332     4.0172    -0.0126 C.ar   1 <0>       0.0600
9 C9       -0.0049     4.7019    -0.0070 C.ar   1 <0>      -0.0400
10 C10       1.1614     4.0040    -0.0097 C.ar   1 <0>      -0.1100
11 C11       1.1617     2.6039    -0.0131 C.ar   1 <0>       0.2500
12 N12       2.3761     1.9123    -0.0154 N.pl3  1 <0>      -0.6500
13 C13       3.5132     2.5166     0.4714 C.2    1 <0>       0.5900
14 N14       3.5008     3.6731     1.0495 N.2    1 <0>      -0.6100
15 C15       4.8616     4.0480     1.4579 C.3    1 <0>       0.0400
16 C16       5.7294     2.8582     1.0017 C.3    1 <0>       0.0900
17 N17       4.7522     1.9422     0.3900 N.pl3  1 <0>      -0.7600
18 H18      -4.4780     2.0967    -0.0265 H      1 <0>       0.1800
19 H19      -4.4611     4.5609    -0.0127 H      1 <0>       0.1800
20 H20       0.0116     5.7817    -0.0010 H      1 <0>       0.1500
21 H21       2.1008     4.5368    -0.0053 H      1 <0>       0.1800
22 H22       2.4178     1.0066    -0.3599 H      1 <0>       0.4200
23 H23       5.1731     4.9633     0.9547 H      1 <0>       0.0900
24 H24       4.9164     4.1681     2.5399 H      1 <0>       0.0900
25 H25       6.4698     3.1807     0.2696 H      1 <0>       0.0800
26 H26       6.2128     2.3848     1.8562 H      1 <0>       0.0800
27 H27       4.9535     1.0806    -0.0077 H      1 <0>       0.4100
@<TRIPOS>BOND
1    1    2 1
2    2   11 ar
3    2    3 ar
4    3    8 ar
5    3    4 ar
6    4    5 ar
7    5    6 ar
8    5   18 1
9    6    7 ar
10    6   19 1
11    7    8 ar
12    8    9 ar
13    9   10 ar
14    9   20 1
15   10   11 ar
16   10   21 1
17   11   12 1
18   12   13 1
19   12   22 1
20   13   17 1
21   13   14 2
22   14   15 1
23   15   16 1
24   15   23 1
25   15   24 1
26   16   17 1
27   16   25 1
28   16   26 1
29   17   27 1
