@<TRIPOS>MOLECULE
ZINC000001530654
51    52    1     0     0
SMALL
USER_CHARGES
@<TRIPOS>ATOM
1      C1      0.1141    1.3486   -0.1091 C.3      1 ZINC000001530654   -0.1900
2      C2      0.0422   -0.1788   -0.0549 C.3      1 ZINC000001530654   -0.0200
3      N3     -1.3570   -0.5978    0.1027 N.4      1 ZINC000001530654   -0.3800
4      H4     -1.7577   -0.1367    0.9057 H        1 ZINC000001530654    0.4300
5      C5     -2.1159   -0.2329   -1.1010 C.3      1 ZINC000001530654   -0.0100
6      C6     -3.5996   -0.5332   -0.8788 C.3      1 ZINC000001530654    0.0500
7      O7     -4.0993    0.2897    0.1772 O.3      1 ZINC000001530654   -0.5800
8      C8     -1.4136   -2.0531    0.2949 C.3      1 ZINC000001530654   -0.0200
9      C9     -0.7301   -2.4203    1.6135 C.3      1 ZINC000001530654   -0.1500
10     C10    -0.7891   -3.9360    1.8137 C.3      1 ZINC000001530654   -0.1300
11     C11    -0.1056   -4.3033    3.1324 C.3      1 ZINC000001530654    0.1300
12     H12     0.9082   -3.9030    3.1399 H        1 ZINC000001530654    0.1100
13     C13    -0.0538   -5.8259    3.2732 C.3      1 ZINC000001530654   -0.1800
14     N14    -0.8633   -3.7350    4.2500 N.pl3    1 ZINC000001530654   -0.6800
15     C15    -0.2287   -3.4690    5.4537 C.ar     1 ZINC000001530654    0.3500
16     C16    -0.9403   -2.9258    6.5495 C.ar     1 ZINC000001530654   -0.1300
17     C17    -2.3093   -2.6372    6.4594 C.ar     1 ZINC000001530654   -0.0500
18     C18    -2.9601   -2.1151    7.5361 C.ar     1 ZINC000001530654   -0.1000
19     C19    -2.2815   -1.8635    8.7274 C.ar     1 ZINC000001530654    0.0400
20     Cl20   -3.1445   -1.1975   10.0785 Cl       1 ZINC000001530654    0.0000
21     C21    -0.9513   -2.1327    8.8478 C.ar     1 ZINC000001530654   -0.1400
22     C22    -0.2476   -2.6723    7.7576 C.ar     1 ZINC000001530654    0.1900
23     N23     1.0587   -2.9465    7.8489 N.ar     1 ZINC000001530654   -0.5000
24     H24     1.5221   -2.7680    8.6821 H        1 ZINC000001530654    0.4500
25     C25     1.7293   -3.4515    6.8393 C.ar     1 ZINC000001530654    0.2400
26     C26     1.1218   -3.7323    5.6236 C.ar     1 ZINC000001530654   -0.2700
27     H27     1.1577    1.6630   -0.1196 H        1 ZINC000001530654    0.1100
28     H28    -0.3815    1.7038   -1.0126 H        1 ZINC000001530654    0.0800
29     H29    -0.3826    1.7670    0.7663 H        1 ZINC000001530654    0.0800
30     H30     0.4441   -0.5945   -0.9789 H        1 ZINC000001530654    0.1300
31     H31     0.6272   -0.5403    0.7908 H        1 ZINC000001530654    0.1300
32     H32    -1.9868    0.8303   -1.3035 H        1 ZINC000001530654    0.1400
33     H33    -1.7512   -0.8115   -1.9497 H        1 ZINC000001530654    0.1400
34     H34    -4.1534   -0.3255   -1.7944 H        1 ZINC000001530654    0.1000
35     H35    -3.7217   -1.5826   -0.6106 H        1 ZINC000001530654    0.0700
36     H36    -5.0146    0.0994    0.4246 H        1 ZINC000001530654    0.4100
37     H37    -2.4544   -2.3756    0.3230 H        1 ZINC000001530654    0.1300
38     H38    -0.9017   -2.5487   -0.5300 H        1 ZINC000001530654    0.1400
39     H39     0.3107   -2.0978    1.5855 H        1 ZINC000001530654    0.0900
40     H40    -1.2419   -1.9247    2.4385 H        1 ZINC000001530654    0.0800
41     H41    -1.8299   -4.2586    1.8418 H        1 ZINC000001530654    0.0900
42     H42    -0.2772   -4.4317    0.9888 H        1 ZINC000001530654    0.1100
43     H43     0.5100   -6.2488    2.4417 H        1 ZINC000001530654    0.0900
44     H44     0.4331   -6.0876    4.2126 H        1 ZINC000001530654    0.0700
45     H45    -1.0676   -6.2262    3.2656 H        1 ZINC000001530654    0.0700
46     H46    -1.8090   -3.5448    4.1479 H        1 ZINC000001530654    0.4200
47     H47    -2.8449   -2.8274    5.5410 H        1 ZINC000001530654    0.1500
48     H48    -4.0147   -1.8930    7.4658 H        1 ZINC000001530654    0.1600
49     H49    -0.4396   -1.9318    9.7774 H        1 ZINC000001530654    0.1700
50     H50     2.7827   -3.6570    6.9593 H        1 ZINC000001530654    0.2100
51     H51     1.6998   -4.1479    4.8114 H        1 ZINC000001530654    0.1800
@<TRIPOS>BOND
1     1     2     1
2     1     27    1
3     1     28    1
4     1     29    1
5     2     3     1
6     2     30    1
7     2     31    1
8     3     4     1
9     3     5     1
10    3     8     1
11    5     6     1
12    5     32    1
13    5     33    1
14    6     7     1
15    6     34    1
16    6     35    1
17    7     36    1
18    8     9     1
19    8     37    1
20    8     38    1
21    9     10    1
22    9     39    1
23    9     40    1
24    10    11    1
25    10    41    1
26    10    42    1
27    11    12    1
28    11    13    1
29    11    14    1
30    13    43    1
31    13    44    1
32    13    45    1
33    14    15    1
34    14    46    1
35    15    26    ar
36    15    16    ar
37    16    22    ar
38    16    17    ar
39    17    18    ar
40    17    47    1
41    18    19    ar
42    18    48    1
43    19    20    1
44    19    21    ar
45    21    22    ar
46    21    49    1
47    22    23    ar
48    23    24    1
49    23    25    ar
50    25    26    ar
51    25    50    1
52    26    51    1
@<TRIPOS>SUBSTRUCTURE
1   ZINC000001530654 1     RESIDUE    1   A     ZIN   1
