@<TRIPOS>MOLECULE
ZINC000000895032
15   14    0    0    0
SMALL
USER_CHARGES
NO_NAME
@<TRIPOS>ATOM
1 N1       -0.0116     1.0048     0.0076 N.4    1 <0>      -0.6000
2 H2        0.0021    -0.0041     0.0020 H      1 <0>       0.4300
3 H3        0.9350     1.3541     0.0004 H      1 <0>       0.4200
4 H4       -0.4996     1.3391    -0.8099 H      1 <0>       0.4200
5 C5       -0.6992     1.4786     1.2162 C.3    1 <0>      -0.0200
6 H6       -1.7218     1.1013     1.2239 H      1 <0>       0.1300
7 C7        0.0408     0.9717     2.4557 C.3    1 <0>      -0.1900
8 C8       -0.0446    -0.5318     2.5119 C.2    1 <0>       0.4900
9 O9       -0.6419    -1.1415     1.6413 O.co2  1 <0>      -0.7100
10 O10       0.4837    -1.1386     3.4280 O.co2  1 <0>      -0.6800
11 C11      -0.7196     2.9854     1.2245 C.2    1 <0>       0.4900
12 O12      -1.3988     3.5814     2.0431 O.co2  1 <0>      -0.6500
13 O13      -0.0570     3.6085     0.4126 O.co2  1 <0>      -0.6900
14 H14       1.0866     1.2746     2.4037 H      1 <0>       0.0700
15 H15      -0.4161     1.3953     3.3501 H      1 <0>       0.1000
@<TRIPOS>BOND
1    1    2 1
2    1    3 1
3    1    4 1
4    1    5 1
5    5    6 1
6    5    7 1
7    5   11 1
8    7    8 1
9    7   14 1
10    7   15 1
11    8    9 ar
12    8   10 ar
13   11   12 ar
14   11   13 ar
