@<TRIPOS>MOLECULE
ZINC000001530788
48   51    0    0    0
SMALL
USER_CHARGES
NO_NAME
@<TRIPOS>ATOM
1 O1        0.0021    -0.0041     0.0020 O.co2  1 <0>      -0.6400
2 C2       -0.0145     1.2181     0.0087 C.2    1 <0>       0.5400
3 O3        1.0356     1.8435     0.0021 O.co2  1 <0>      -0.6500
4 C4       -1.3067     1.9409     0.0188 C.2    1 <0>       0.0800
5 C5       -2.4534     1.2199     0.0259 C.2    1 <0>      -0.2900
6 C6       -3.7366     1.9498     0.0197 C.2    1 <0>       0.4200
7 O7       -4.7962     1.3945     0.2499 O.2    1 <0>      -0.4500
8 C8       -3.6593     3.3901    -0.2811 C.ar   1 <0>      -0.2600
9 C9       -4.8051     4.1406    -0.5682 C.ar   1 <0>       0.2100
10 O10      -6.0280     3.5528    -0.5639 O.3    1 <0>      -0.2700
11 C11      -7.1491     4.3855    -0.8669 C.3    1 <0>       0.0300
12 C12      -8.4317     3.5531    -0.8141 C.3    1 <0>       0.1100
13 O13      -8.6494     3.0977     0.5229 O.3    1 <0>      -0.5300
14 C14      -9.6165     4.4129    -1.2592 C.3    1 <0>       0.0300
15 O15     -10.7940     3.6056    -1.3217 O.3    1 <0>      -0.2700
16 C16     -11.9422     4.2197    -1.7030 C.ar   1 <0>       0.2100
17 C17     -11.9429     5.5682    -2.0175 C.ar   1 <0>      -0.2600
18 C18     -13.1180     6.1923    -2.4028 C.ar   1 <0>      -0.0200
19 C19     -14.3028     5.4894    -2.4768 C.ar   1 <0>      -0.1900
20 C20     -14.3315     4.1352    -2.1651 C.ar   1 <0>       0.1900
21 C21     -13.1365     3.4951    -1.7880 C.ar   1 <0>      -0.2600
22 C22     -13.1876     2.0545    -1.4829 C.2    1 <0>       0.4200
23 O23     -12.2619     1.4759    -0.9421 O.2    1 <0>      -0.4500
24 C24     -14.4280     1.3543    -1.8712 C.2    1 <0>      -0.2900
25 C25     -15.5014     2.1015    -2.2238 C.2    1 <0>       0.0800
26 C26     -16.7452     1.4088    -2.6305 C.2    1 <0>       0.5400
27 O27     -16.7883     0.1874    -2.6431 O.co2  1 <0>      -0.6400
28 O28     -17.7289     2.0584    -2.9536 O.co2  1 <0>      -0.6500
29 O29     -15.4839     3.4410    -2.2251 O.3    1 <0>      -0.2000
30 C30      -4.6785     5.4891    -0.8563 C.ar   1 <0>      -0.2600
31 C31      -3.4284     6.0860    -0.8574 C.ar   1 <0>      -0.0200
32 C32      -2.2938     5.3555    -0.5707 C.ar   1 <0>      -0.1900
33 C33      -2.3919     4.0011    -0.2748 C.ar   1 <0>       0.1900
34 O34      -1.2926     3.2815     0.0260 O.3    1 <0>      -0.2000
35 H35      -2.4296     0.1402     0.0355 H      1 <0>       0.1700
36 H36      -7.2097     5.1930    -0.1372 H      1 <0>       0.0700
37 H37      -7.0299     4.8063    -1.8653 H      1 <0>       0.0800
38 H38      -8.3355     2.6948    -1.4791 H      1 <0>       0.1200
39 H39      -8.7444     3.8097     1.1703 H      1 <0>       0.3700
40 H40      -9.7677     5.2213    -0.5439 H      1 <0>       0.0700
41 H41      -9.4110     4.8327    -2.2439 H      1 <0>       0.0800
42 H42     -11.0251     6.1349    -1.9618 H      1 <0>       0.1300
43 H43     -13.1067     7.2440    -2.6484 H      1 <0>       0.1400
44 H44     -15.2100     5.9925    -2.7772 H      1 <0>       0.1400
45 H45     -14.4781     0.2755    -1.8743 H      1 <0>       0.1700
46 H46      -5.5563     6.0768    -1.0809 H      1 <0>       0.1300
47 H47      -3.3408     7.1378    -1.0863 H      1 <0>       0.1400
48 H48      -1.3271     5.8372    -0.5762 H      1 <0>       0.1400
@<TRIPOS>BOND
1    1    2 ar
2    2    3 ar
3    2    4 1
4    4   34 1
5    4    5 2
6    5    6 1
7    5   35 1
8    6    7 2
9    6    8 1
10    8   33 ar
11    8    9 ar
12    9   10 1
13    9   30 ar
14   10   11 1
15   11   12 1
16   11   36 1
17   11   37 1
18   12   13 1
19   12   14 1
20   12   38 1
21   13   39 1
22   14   15 1
23   14   40 1
24   14   41 1
25   15   16 1
26   16   21 ar
27   16   17 ar
28   17   18 ar
29   17   42 1
30   18   19 ar
31   18   43 1
32   19   20 ar
33   19   44 1
34   20   29 1
35   20   21 ar
36   21   22 1
37   22   23 2
38   22   24 1
39   24   25 2
40   24   45 1
41   25   26 1
42   25   29 1
43   26   27 ar
44   26   28 ar
45   30   31 ar
46   30   46 1
47   31   32 ar
48   31   47 1
49   32   33 ar
50   32   48 1
51   33   34 1
