@<TRIPOS>MOLECULE
ZINC000003875484
53    56    1     0     0
SMALL
USER_CHARGES
@<TRIPOS>ATOM
1      C1      0.2495    1.5974    0.6664 C.3      1 ZINC000003875484   -0.1800
2      C2      0.2721    0.0689    0.6026 C.3      1 ZINC000003875484    0.1400
3      O3      0.8804   -0.3661   -0.6151 O.3      1 ZINC000003875484   -0.5500
4      C4     -1.1663   -0.4943    0.7174 C.3      1 ZINC000003875484   -0.1500
5      C5     -1.2149   -1.3049    2.0414 C.3      1 ZINC000003875484   -0.1100
6      C6     -0.0878   -0.6774    2.8693 C.3      1 ZINC000003875484   -0.0900
7      H7     -0.3987    0.2912    3.2608 H        1 ZINC000003875484    0.0800
8      C8      0.4718   -1.5419    3.9844 C.3      1 ZINC000003875484   -0.1000
9      H9      0.8313   -2.4873    3.5782 H        1 ZINC000003875484    0.1100
10     C10    -0.6145   -1.8018    5.0321 C.3      1 ZINC000003875484   -0.1200
11     C11    -0.0576   -2.7307    6.1129 C.3      1 ZINC000003875484   -0.1000
12     C12     1.2070   -2.1146    6.6828 C.2      1 ZINC000003875484   -0.0200
13     C13     1.3207   -2.0494    8.0092 C.2      1 ZINC000003875484   -0.2400
14     C14     2.5280   -1.4782    8.6157 C.2      1 ZINC000003875484    0.3900
15     O15     2.5318   -1.0527    9.7519 O.2      1 ZINC000003875484   -0.4600
16     C16     3.7709   -1.4482    7.7479 C.3      1 ZINC000003875484   -0.1600
17     C17     3.3752   -0.8400    6.4032 C.3      1 ZINC000003875484   -0.1100
18     C18     2.2604   -1.6268    5.7367 C.3      1 ZINC000003875484   -0.0500
19     C19     2.8842   -2.8453    5.0532 C.3      1 ZINC000003875484   -0.1400
20     C20     1.6333   -0.7720    4.6293 C.3      1 ZINC000003875484    0.1500
21     F21     1.1259    0.4032    5.1940 F        1 ZINC000003875484   -0.2000
22     C22     2.7117   -0.3967    3.6170 C.3      1 ZINC000003875484    0.0900
23     H23     3.4541    0.2341    4.1059 H        1 ZINC000003875484    0.0700
24     O24     3.3477   -1.5882    3.1503 O.3      1 ZINC000003875484   -0.5400
25     C25     2.1247    0.3600    2.4150 C.3      1 ZINC000003875484   -0.1400
26     C26     1.0249   -0.4990    1.8015 C.3      1 ZINC000003875484   -0.0500
27     C27     1.5755   -1.8874    1.4700 C.3      1 ZINC000003875484   -0.1400
28     H28     1.2714    1.9765    0.6575 H        1 ZINC000003875484    0.0600
29     H29    -0.2909    1.9891   -0.1953 H        1 ZINC000003875484    0.0600
30     H30    -0.2480    1.9155    1.5826 H        1 ZINC000003875484    0.0700
31     H31     0.4325   -0.0520   -1.4125 H        1 ZINC000003875484    0.3700
32     H32    -1.8865    0.3231    0.7525 H        1 ZINC000003875484    0.0700
33     H33    -1.3812   -1.1469   -0.1288 H        1 ZINC000003875484    0.0700
34     H34    -2.1764   -1.1750    2.5380 H        1 ZINC000003875484    0.0700
35     H35    -1.0151   -2.3601    1.8552 H        1 ZINC000003875484    0.0700
36     H36    -0.9179   -0.8575    5.4843 H        1 ZINC000003875484    0.0700
37     H37    -1.4750   -2.2718    4.5558 H        1 ZINC000003875484    0.0800
38     H38    -0.7950   -2.8514    6.9064 H        1 ZINC000003875484    0.0800
39     H39     0.1741   -3.7021    5.6759 H        1 ZINC000003875484    0.0900
40     H40     0.5232   -2.4171    8.6378 H        1 ZINC000003875484    0.1400
41     H41     4.5379   -0.8348    8.2206 H        1 ZINC000003875484    0.0900
42     H42     4.1444   -2.4616    7.6006 H        1 ZINC000003875484    0.1000
43     H43     3.0411    0.1854    6.5615 H        1 ZINC000003875484    0.0700
44     H44     4.2456   -0.8315    5.7471 H        1 ZINC000003875484    0.0900
45     H45     3.0211   -3.6417    5.7847 H        1 ZINC000003875484    0.0500
46     H46     2.2253   -3.1923    4.2572 H        1 ZINC000003875484    0.0700
47     H47     3.8505   -2.5699    4.6308 H        1 ZINC000003875484    0.1000
48     H48     4.0475   -1.4323    2.5014 H        1 ZINC000003875484    0.3700
49     H49     1.6742    1.2947    2.7487 H        1 ZINC000003875484    0.0800
50     H50     2.9087    0.5641    1.6858 H        1 ZINC000003875484    0.0800
51     H51     1.8213   -2.4109    2.3939 H        1 ZINC000003875484    0.0900
52     H52     0.8243   -2.4543    0.9200 H        1 ZINC000003875484    0.0400
53     H53     2.4730   -1.7862    0.8599 H        1 ZINC000003875484    0.0500
@<TRIPOS>BOND
1     1     2     1
2     1     28    1
3     1     29    1
4     1     30    1
5     2     26    1
6     2     3     1
7     2     4     1
8     3     31    1
9     4     5     1
10    4     32    1
11    4     33    1
12    5     6     1
13    5     34    1
14    5     35    1
15    6     7     1
16    6     26    1
17    6     8     1
18    8     9     1
19    8     20    1
20    8     10    1
21    10    11    1
22    10    36    1
23    10    37    1
24    11    12    1
25    11    38    1
26    11    39    1
27    12    18    1
28    12    13    2
29    13    14    1
30    13    40    1
31    14    15    2
32    14    16    1
33    16    17    1
34    16    41    1
35    16    42    1
36    17    18    1
37    17    43    1
38    17    44    1
39    18    19    1
40    18    20    1
41    19    45    1
42    19    46    1
43    19    47    1
44    20    21    1
45    20    22    1
46    22    23    1
47    22    24    1
48    22    25    1
49    24    48    1
50    25    26    1
51    25    49    1
52    25    50    1
53    26    27    1
54    27    51    1
55    27    52    1
56    27    53    1
@<TRIPOS>SUBSTRUCTURE
1   ZINC000003875484 1     RESIDUE    1   A     ZIN   1
