@<TRIPOS>MOLECULE
ZINC000019632633
31   31    0    0    0
SMALL
USER_CHARGES
NO_NAME
@<TRIPOS>ATOM
1 C1        0.0180    -1.1779    -0.0044 C.1    1 <0>      -0.2000
2 C2        0.0021    -0.0041     0.0020 C.1    1 <0>      -0.1800
3 C3       -0.0179     1.4678     0.0101 C.3    1 <0>       0.1600
4 N4        1.3603     1.9762    -0.0003 N.3    1 <0>      -0.5300
5 C5        2.0349     1.6428    -1.2619 C.3    1 <0>       0.0100
6 C6        1.3890     3.4243     0.2453 C.3    1 <0>       0.0900
7 H7        0.8667     3.6453     1.1762 H      1 <0>       0.0900
8 C8        0.7001     4.1515    -0.9111 C.3    1 <0>      -0.1900
9 C9        2.8410     3.8949     0.3511 C.3    1 <0>      -0.0800
10 C10       3.4839     3.2720     1.5634 C.ar   1 <0>      -0.0700
11 C11       3.4235     3.9155     2.7853 C.ar   1 <0>      -0.1200
12 C12       4.0132     3.3442     3.8973 C.ar   1 <0>      -0.1200
13 C13       4.6630     2.1290     3.7876 C.ar   1 <0>      -0.1300
14 C14       4.7227     1.4851     2.5658 C.ar   1 <0>      -0.1200
15 C15       4.1293     2.0544     1.4547 C.ar   1 <0>      -0.0900
16 H16       0.0322    -2.2278    -0.0102 H      1 <0>       0.2200
17 H17      -0.5451     1.8289    -0.8729 H      1 <0>       0.0600
18 H18      -0.5281     1.8193     0.9069 H      1 <0>       0.1000
19 H19       1.4910     2.0901    -2.0940 H      1 <0>       0.0300
20 H20       3.0533     2.0309    -1.2430 H      1 <0>       0.0700
21 H21       2.0609     0.5601    -1.3849 H      1 <0>       0.0700
22 H22      -0.3343     3.8163    -0.9864 H      1 <0>       0.0600
23 H23       0.7215     5.2260    -0.7288 H      1 <0>       0.0700
24 H24       1.2224     3.9305    -1.8419 H      1 <0>       0.0600
25 H25       3.3862     3.5950    -0.5438 H      1 <0>       0.0800
26 H26       2.8652     4.9806     0.4445 H      1 <0>       0.0800
27 H27       2.9158     4.8649     2.8711 H      1 <0>       0.1200
28 H28       3.9666     3.8473     4.8518 H      1 <0>       0.1200
29 H29       5.1244     1.6830     4.6562 H      1 <0>       0.1200
30 H30       5.2307     0.5359     2.4800 H      1 <0>       0.1200
31 H31       4.1759     1.5512     0.5002 H      1 <0>       0.1200
@<TRIPOS>BOND
1    1    2 3
2    1   16 1
3    2    3 1
4    3    4 1
5    3   17 1
6    3   18 1
7    4    5 1
8    4    6 1
9    5   19 1
10    5   20 1
11    5   21 1
12    6    7 1
13    6    8 1
14    6    9 1
15    8   22 1
16    8   23 1
17    8   24 1
18    9   10 1
19    9   25 1
20    9   26 1
21   10   15 ar
22   10   11 ar
23   11   12 ar
24   11   27 1
25   12   13 ar
26   12   28 1
27   13   14 ar
28   13   29 1
29   14   15 ar
30   14   30 1
31   15   31 1
