@<TRIPOS>MOLECULE
ZINC000000004166
39   39    0    0    0
SMALL
USER_CHARGES
NO_NAME
@<TRIPOS>ATOM
1 C1        0.1942     1.5257     0.0758 C.3    1 <0>      -0.1900
2 C2        0.1340    -0.0027     0.0422 C.3    1 <0>       0.0200
3 C3        0.8468    -0.5138    -1.2114 C.3    1 <0>      -0.1900
4 N4        0.7948    -0.5452     1.2368 N.4    1 <0>      -0.5000
5 H5        0.8280    -1.5518     1.1749 H      1 <0>       0.4300
6 H6        1.7338    -0.1808     1.2964 H      1 <0>       0.4300
7 C7        0.0404    -0.1528     2.4346 C.3    1 <0>      -0.0500
8 C8        0.7287    -0.7178     3.6787 C.3    1 <0>       0.1400
9 H9        0.8442    -1.7964     3.5718 H      1 <0>       0.1300
10 O10       2.0150    -0.1134     3.8273 O.3    1 <0>      -0.5500
11 C11      -0.1096    -0.4205     4.8952 C.ar   1 <0>      -0.1500
12 C12      -0.0638     0.8342     5.4747 C.ar   1 <0>      -0.0900
13 C13      -0.8307     1.1101     6.5896 C.ar   1 <0>      -0.1300
14 C14      -1.6487     0.1254     7.1289 C.ar   1 <0>       0.1700
15 N15      -2.4260     0.4010     8.2562 N.am   1 <0>      -1.0600
16 S16      -4.0183    -0.0523     8.2951 S.o2   1 <0>       2.6100
17 C17      -4.7807     0.8541     6.9211 C.3    1 <0>      -0.6700
18 O18      -3.9926    -1.4461     8.0197 O.2    1 <0>      -0.9500
19 O19      -4.4924     0.4397     9.5411 O.2    1 <0>      -0.9400
20 C20      -1.6923    -1.1340     6.5443 C.ar   1 <0>      -0.1500
21 C21      -0.9271    -1.4014     5.4262 C.ar   1 <0>      -0.0700
22 H22       1.2353     1.8480     0.0930 H      1 <0>       0.0800
23 H23      -0.2962     1.9282    -0.8105 H      1 <0>       0.1100
24 H24      -0.3136     1.8898     0.9690 H      1 <0>       0.0800
25 H25      -0.9072    -0.3250     0.0251 H      1 <0>       0.1400
26 H26       1.8879    -0.1915    -1.1942 H      1 <0>       0.0800
27 H27       0.8039    -1.6027    -1.2354 H      1 <0>       0.0800
28 H28       0.3564    -0.1113    -2.0978 H      1 <0>       0.1100
29 H29       0.0045     0.9346     2.5014 H      1 <0>       0.1400
30 H30      -0.9740    -0.5465     2.3702 H      1 <0>       0.1400
31 H31       1.9886     0.8480     3.9276 H      1 <0>       0.3900
32 H32       0.5727     1.5992     5.0551 H      1 <0>       0.1300
33 H33      -0.7942     2.0901     7.0419 H      1 <0>       0.1400
34 H34      -2.0331     0.8580     9.0163 H      1 <0>       0.4300
35 H35      -4.3612     0.5042     5.9779 H      1 <0>       0.1300
36 H36      -5.8571     0.6830     6.9258 H      1 <0>       0.1400
37 H37      -4.5817     1.9198     7.0341 H      1 <0>       0.1300
38 H38      -2.3270    -1.9019     6.9614 H      1 <0>       0.1700
39 H39      -0.9605    -2.3803     4.9712 H      1 <0>       0.1400
@<TRIPOS>BOND
1    1    2 1
2    1   22 1
3    1   23 1
4    1   24 1
5    2    3 1
6    2    4 1
7    2   25 1
8    3   26 1
9    3   27 1
10    3   28 1
11    4    5 1
12    4    6 1
13    4    7 1
14    7    8 1
15    7   29 1
16    7   30 1
17    8    9 1
18    8   10 1
19    8   11 1
20   10   31 1
21   11   21 ar
22   11   12 ar
23   12   13 ar
24   12   32 1
25   13   14 ar
26   13   33 1
27   14   15 1
28   14   20 ar
29   15   16 am
30   15   34 1
31   16   17 1
32   16   18 2
33   16   19 2
34   17   35 1
35   17   36 1
36   17   37 1
37   20   21 ar
38   20   38 1
39   21   39 1
