@<TRIPOS>MOLECULE
ZINC000000001505
31   32    0    0    0
SMALL
USER_CHARGES
NO_NAME
@<TRIPOS>ATOM
1 N1       -0.0165     1.3681     0.0096 N.pl3  1 <0>      -0.8200
2 C2        0.0021    -0.0041     0.0020 C.2    1 <0>       0.6600
3 N3       -1.1382    -0.6578     0.0040 N.2    1 <0>      -0.5800
4 C4       -1.1685    -1.9955    -0.0031 C.2    1 <0>       0.3100
5 C5        0.0312    -2.7162    -0.0129 C.2    1 <0>      -0.1400
6 N6       -0.2906    -4.0328    -0.0184 N.2    1 <0>      -0.4300
7 C7       -1.5853    -4.1598    -0.0128 C.2    1 <0>       0.2300
8 N8       -2.1710    -2.9271    -0.0033 N.pl3  1 <0>      -0.4600
9 C9       -3.6099    -2.6516     0.0052 C.3    1 <0>       0.2900
10 O10      -4.3311    -3.8852     0.0015 O.3    1 <0>      -0.3700
11 C11      -5.7514    -3.7281     0.0092 C.3    1 <0>       0.1000
12 C12      -6.2653    -3.6635    -1.4305 C.3    1 <0>       0.0600
13 O13      -6.0269    -4.9150    -2.0779 O.3    1 <0>      -0.5300
14 C14      -6.3923    -4.9178     0.7266 C.3    1 <0>       0.0800
15 O15      -6.1481    -6.1118    -0.0196 O.3    1 <0>      -0.5300
16 C16       1.2511    -2.0002    -0.0145 C.2    1 <0>       0.6000
17 O17       2.3198    -2.5868    -0.0229 O.2    1 <0>      -0.5100
18 N18       1.2025    -0.6496    -0.0129 N.am   1 <0>      -0.6600
19 H19       0.8168     1.8644     0.0043 H      1 <0>       0.4200
20 H20      -0.8631     1.8416     0.0162 H      1 <0>       0.4300
21 H21      -2.1170    -5.0999    -0.0150 H      1 <0>       0.2300
22 H22      -3.8658    -2.0838     0.8998 H      1 <0>       0.0800
23 H23      -3.8743    -2.0734    -0.8801 H      1 <0>       0.0800
24 H24      -6.0122    -2.8065     0.5297 H      1 <0>       0.0900
25 H25      -7.3351    -3.4550    -1.4255 H      1 <0>       0.0600
26 H26      -5.7433    -2.8715    -1.9674 H      1 <0>       0.0400
27 H27      -6.3280    -4.9464    -2.9963 H      1 <0>       0.3700
28 H28      -5.9606    -5.0171     1.7225 H      1 <0>       0.0500
29 H29      -7.4668    -4.7555     0.8109 H      1 <0>       0.0600
30 H30      -6.5267    -6.9081     0.3774 H      1 <0>       0.3700
31 H31       2.0260    -0.1371    -0.0140 H      1 <0>       0.4200
@<TRIPOS>BOND
1    1    2 1
2    1   19 1
3    1   20 1
4    2   18 1
5    2    3 2
6    3    4 1
7    4    8 1
8    4    5 2
9    5    6 1
10    5   16 1
11    6    7 2
12    7    8 1
13    7   21 1
14    8    9 1
15    9   10 1
16    9   22 1
17    9   23 1
18   10   11 1
19   11   12 1
20   11   14 1
21   11   24 1
22   12   13 1
23   12   25 1
24   12   26 1
25   13   27 1
26   14   15 1
27   14   28 1
28   14   29 1
29   15   30 1
30   16   17 2
31   16   18 am
32   18   31 1
