@<TRIPOS>MOLECULE
ZINC000003812944
30    30    1     0     0
SMALL
USER_CHARGES
@<TRIPOS>ATOM
1      C1     -0.3770    0.9353    0.0294 C.3      1 ZINC000003812944   -0.1500
2      C2      0.3047   -0.4010    0.3299 C.3      1 ZINC000003812944   -0.1100
3      C3     -0.7485   -1.4271    0.7529 C.3      1 ZINC000003812944   -0.1400
4      C4      1.0157   -0.8911   -0.9052 C.2      1 ZINC000003812944    0.5200
5      O5      0.7102   -1.9561   -1.3985 O.2      1 ZINC000003812944   -0.5100
6      N6      1.9912   -0.1458   -1.4616 N.am     1 ZINC000003812944   -0.6700
7      C7      2.7172   -0.6430   -2.5495 C.ar     1 ZINC000003812944    0.2000
8      C8      2.0899   -1.4376   -3.4998 C.ar     1 ZINC000003812944   -0.1000
9      C9      2.8094   -1.9269   -4.5726 C.ar     1 ZINC000003812944   -0.0300
10     C10     4.1529   -1.6263   -4.7007 C.ar     1 ZINC000003812944   -0.0200
11     N11     4.9209   -2.1523   -5.8515 N.pl3    1 ZINC000003812944    0.0200
12     O12     4.3693   -2.8492   -6.6844 O.2      1 ZINC000003812944   -0.1400
13     O13     6.1044   -1.8883   -5.9656 O.2      1 ZINC000003812944   -0.1400
14     C14     4.7805   -0.8348   -3.7561 C.ar     1 ZINC000003812944   -0.1000
15     C15     6.2449   -0.5092   -3.8998 C.3      1 ZINC000003812944    0.5200
16     F16     6.6500    0.2986   -2.8319 F        1 ZINC000003812944   -0.1700
17     F17     6.9886   -1.6941   -3.8966 F        1 ZINC000003812944   -0.1600
18     F18     6.4554    0.1702   -5.1045 F        1 ZINC000003812944   -0.1600
19     C19     4.0655   -0.3381   -2.6841 C.ar     1 ZINC000003812944   -0.1000
20     H20     0.3733    1.6663   -0.2719 H        1 ZINC000003812944    0.0600
21     H21    -1.0987    0.8020   -0.7765 H        1 ZINC000003812944    0.0700
22     H22    -0.8913    1.2898    0.9227 H        1 ZINC000003812944    0.0800
23     H23     1.0263   -0.2677    1.1358 H        1 ZINC000003812944    0.1100
24     H24    -1.4702   -1.5604   -0.0530 H        1 ZINC000003812944    0.0700
25     H25    -0.2629   -2.3791    0.9669 H        1 ZINC000003812944    0.0700
26     H26    -1.2628   -1.0726    1.6462 H        1 ZINC000003812944    0.0700
27     H27     2.1899    0.7353   -1.1078 H        1 ZINC000003812944    0.4200
28     H28     1.0406   -1.6730   -3.4001 H        1 ZINC000003812944    0.1700
29     H29     2.3222   -2.5453   -5.3119 H        1 ZINC000003812944    0.1700
30     H30     4.5561    0.2802   -1.9470 H        1 ZINC000003812944    0.1700
@<TRIPOS>BOND
1     1     2     1
2     1     20    1
3     1     21    1
4     1     22    1
5     2     3     1
6     2     4     1
7     2     23    1
8     3     24    1
9     3     25    1
10    3     26    1
11    4     5     2
12    4     6     am
13    6     7     1
14    6     27    1
15    7     19    ar
16    7     8     ar
17    8     9     ar
18    8     28    1
19    9     10    ar
20    9     29    1
21    10    11    1
22    10    14    ar
23    11    12    2
24    11    13    2
25    14    15    1
26    14    19    ar
27    15    16    1
28    15    17    1
29    15    18    1
30    19    30    1
@<TRIPOS>SUBSTRUCTURE
1   ZINC000003812944 1     RESIDUE    1   A     ZIN   1
