@<TRIPOS>MOLECULE
ZINC000013682481
54    56    1     0     0
SMALL
USER_CHARGES
@<TRIPOS>ATOM
1      C1     -0.0361    1.6177    0.6545 C.3      1 ZINC000013682481    0.0200
2      O2      0.0325    0.1927    0.7365 O.3      1 ZINC000013682481   -0.3000
3      C3     -1.1358   -0.4882    0.6182 C.ar     1 ZINC000013682481    0.2000
4      C4     -2.3170    0.2055    0.4220 C.ar     1 ZINC000013682481   -0.2700
5      C5     -3.5149   -0.4901    0.3006 C.ar     1 ZINC000013682481    0.2200
6      C6     -3.5031   -1.8944    0.3800 C.ar     1 ZINC000013682481   -0.2100
7      C7     -2.3021   -2.5783    0.5786 C.ar     1 ZINC000013682481    0.0200
8      C8     -1.1341   -1.8801    0.6897 C.ar     1 ZINC000013682481   -0.1400
9      C9      0.1624   -2.6179    0.9036 C.3      1 ZINC000013682481   -0.0300
10     C10     0.4723   -2.6721    2.3774 C.ar     1 ZINC000013682481   -0.1000
11     C11     1.2963   -1.7194    2.9459 C.ar     1 ZINC000013682481   -0.0800
12     C12     1.5808   -1.7681    4.2981 C.ar     1 ZINC000013682481   -0.1200
13     C13     1.0419   -2.7697    5.0834 C.ar     1 ZINC000013682481   -0.0900
14     C14     0.2172   -3.7248    4.5169 C.ar     1 ZINC000013682481   -0.0700
15     Cl15   -0.4593   -4.9834    5.5029 Cl       1 ZINC000013682481   -0.0500
16     C16    -0.0732   -3.6730    3.1632 C.ar     1 ZINC000013682481    0.1100
17     F17    -0.8785   -4.6050    2.6082 F        1 ZINC000013682481   -0.1200
18     C18    -4.7789   -2.6192    0.2499 C.2      1 ZINC000013682481    0.4300
19     O19    -4.8273   -3.8354    0.3111 O.2      1 ZINC000013682481   -0.4600
20     C20    -5.9932   -1.8125    0.0431 C.2      1 ZINC000013682481   -0.3400
21     C21    -7.3051   -2.4600   -0.0956 C.2      1 ZINC000013682481    0.5500
22     O22    -8.3013   -1.7844   -0.2660 O.2      1 ZINC000013682481   -0.5400
23     O23    -7.4039   -3.8030   -0.0339 O.3      1 ZINC000013682481   -0.4900
24     C24    -5.8792   -0.4388   -0.0178 C.2      1 ZINC000013682481    0.2700
25     N25    -4.7004    0.1855    0.1054 N.pl3    1 ZINC000013682481   -0.4700
26     C26    -4.6698    1.6482    0.0289 C.3      1 ZINC000013682481    0.1200
27     H27    -3.6352    1.9911    0.0410 H        1 ZINC000013682481    0.1200
28     C28    -5.4164    2.2373    1.2274 C.3      1 ZINC000013682481    0.0600
29     O29    -6.7961    1.8725    1.1553 O.3      1 ZINC000013682481   -0.5700
30     C30    -5.3435    2.1053   -1.2666 C.3      1 ZINC000013682481   -0.1100
31     C31    -5.2403    3.6272   -1.3856 C.3      1 ZINC000013682481   -0.1400
32     C32    -4.6468    1.4519   -2.4618 C.3      1 ZINC000013682481   -0.1500
33     H33     0.9643    2.0365    0.7642 H        1 ZINC000013682481    0.1100
34     H34    -0.4468    1.9067   -0.3129 H        1 ZINC000013682481    0.0600
35     H35    -0.6779    1.9970    1.4497 H        1 ZINC000013682481    0.0600
36     H36    -2.3086    1.2839    0.3638 H        1 ZINC000013682481    0.1400
37     H37    -2.2965   -3.6566    0.6394 H        1 ZINC000013682481    0.1500
38     H38     0.0721   -3.6317    0.5137 H        1 ZINC000013682481    0.0900
39     H39     0.9663   -2.0983    0.3822 H        1 ZINC000013682481    0.1000
40     H40     1.7186   -0.9366    2.3334 H        1 ZINC000013682481    0.1400
41     H41     2.2249   -1.0229    4.7410 H        1 ZINC000013682481    0.1400
42     H42     1.2652   -2.8069    6.1394 H        1 ZINC000013682481    0.1400
43     H43    -8.2878   -4.1831   -0.1305 H        1 ZINC000013682481    0.4100
44     H44    -6.7699    0.1528   -0.1698 H        1 ZINC000013682481    0.1900
45     H45    -4.9856    1.8492    2.1503 H        1 ZINC000013682481    0.0600
46     H46    -5.3266    3.3235    1.2132 H        1 ZINC000013682481    0.0800
47     H47    -7.3315    2.2126    1.8852 H        1 ZINC000013682481    0.3900
48     H48    -6.3932    1.8122   -1.2532 H        1 ZINC000013682481    0.0900
49     H49    -5.6270    3.9429   -2.3545 H        1 ZINC000013682481    0.0700
50     H50    -5.8236    4.0940   -0.5919 H        1 ZINC000013682481    0.0600
51     H51    -4.1968    3.9288   -1.2950 H        1 ZINC000013682481    0.0600
52     H52    -4.7203    0.3677   -2.3770 H        1 ZINC000013682481    0.0600
53     H53    -5.1267    1.7775   -3.3847 H        1 ZINC000013682481    0.0700
54     H54    -3.5970    1.7449   -2.4752 H        1 ZINC000013682481    0.0600
@<TRIPOS>BOND
1     1     2     1
2     1     33    1
3     1     34    1
4     1     35    1
5     2     3     1
6     3     8     ar
7     3     4     ar
8     4     5     ar
9     4     36    1
10    5     25    1
11    5     6     ar
12    6     7     ar
13    6     18    1
14    7     8     ar
15    7     37    1
16    8     9     1
17    9     10    1
18    9     38    1
19    9     39    1
20    10    16    ar
21    10    11    ar
22    11    12    ar
23    11    40    1
24    12    13    ar
25    12    41    1
26    13    14    ar
27    13    42    1
28    14    15    1
29    14    16    ar
30    16    17    1
31    18    19    2
32    18    20    1
33    20    21    1
34    20    24    2
35    21    22    2
36    21    23    1
37    23    43    1
38    24    25    1
39    24    44    1
40    25    26    1
41    26    27    1
42    26    28    1
43    26    30    1
44    28    29    1
45    28    45    1
46    28    46    1
47    29    47    1
48    30    31    1
49    30    32    1
50    30    48    1
51    31    49    1
52    31    50    1
53    31    51    1
54    32    52    1
55    32    53    1
56    32    54    1
@<TRIPOS>SUBSTRUCTURE
1   ZINC000013682481 1     RESIDUE    1   A     ZIN   1
