@<TRIPOS>MOLECULE
ZINC000000537891
46    49    1     0     0
SMALL
USER_CHARGES
@<TRIPOS>ATOM
1      C1      0.0330    1.8914    0.3170 C.3      1 ZINC000000537891   -0.1600
2      C2      0.0519    0.3715    0.1423 C.3      1 ZINC000000537891    0.0900
3      H3      0.5738    0.1178   -0.7803 H        1 ZINC000000537891    0.1200
4      C4     -1.3849   -0.1532    0.0775 C.3      1 ZINC000000537891    0.0500
5      O5     -2.0116    0.0667    1.3470 O.3      1 ZINC000000537891   -0.2800
6      C6     -1.3691   -0.4626    2.4252 C.ar     1 ZINC000000537891    0.1300
7      C7     -2.0892   -0.8353    3.5511 C.ar     1 ZINC000000537891    0.0500
8      N8     -3.4743   -0.6615    3.5773 N.3      1 ZINC000000537891   -0.4800
9      C9     -3.8724    0.2316    4.6745 C.3      1 ZINC000000537891    0.0200
10     C10    -5.3874    0.4431    4.6319 C.3      1 ZINC000000537891    0.0000
11     N11    -6.0666   -0.8528    4.7616 N.4      1 ZINC000000537891   -0.3900
12     H12    -5.8020   -1.2853    5.6340 H        1 ZINC000000537891    0.4200
13     C13    -7.5210   -0.6475    4.7385 C.3      1 ZINC000000537891   -0.0400
14     C14    -5.6781   -1.7251    3.6454 C.3      1 ZINC000000537891    0.0000
15     C15    -4.1655   -1.9545    3.6798 C.3      1 ZINC000000537891    0.0200
16     C16    -1.4380   -1.3834    4.6578 C.ar     1 ZINC000000537891    0.0400
17     F17    -2.1500   -1.7403    5.7491 F        1 ZINC000000537891   -0.1400
18     C18    -0.0831   -1.5605    4.6409 C.ar     1 ZINC000000537891   -0.0700
19     C19     0.6557   -1.1893    3.5142 C.ar     1 ZINC000000537891   -0.1300
20     C20     0.0145   -0.6282    2.3956 C.ar     1 ZINC000000537891    0.1500
21     N21     0.7446   -0.2453    1.2838 N.pl3    1 ZINC000000537891   -0.4900
22     C22     2.0738   -0.4155    1.2125 C.2      1 ZINC000000537891    0.1500
23     C23     2.8108   -0.9611    2.2438 C.2      1 ZINC000000537891   -0.2800
24     C24     4.2624   -1.1235    2.1171 C.2      1 ZINC000000537891    0.5300
25     O25     4.8302   -0.7740    1.0905 O.co2    1 ZINC000000537891   -0.7000
26     O26     4.9067   -1.6087    3.0381 O.co2    1 ZINC000000537891   -0.6600
27     C27     2.1158   -1.3774    3.4738 C.2      1 ZINC000000537891    0.4100
28     O28     2.7220   -1.8561    4.4166 O.2      1 ZINC000000537891   -0.4300
29     H29     1.0561    2.2644    0.3642 H        1 ZINC000000537891    0.0700
30     H30    -0.4815    2.3479   -0.5286 H        1 ZINC000000537891    0.0800
31     H31    -0.4890    2.1446    1.2397 H        1 ZINC000000537891    0.0600
32     H32    -1.9341    0.3796   -0.6987 H        1 ZINC000000537891    0.1300
33     H33    -1.3748   -1.2202   -0.1454 H        1 ZINC000000537891    0.0800
34     H34    -3.5945   -0.2174    5.6280 H        1 ZINC000000537891    0.0700
35     H35    -3.3680    1.1915    4.5634 H        1 ZINC000000537891    0.1300
36     H36    -5.6866    1.0939    5.4535 H        1 ZINC000000537891    0.1400
37     H37    -5.6633    0.9047    3.6838 H        1 ZINC000000537891    0.1400
38     H38    -7.8070   -0.1799    3.7963 H        1 ZINC000000537891    0.1200
39     H39    -8.0253   -1.6091    4.8346 H        1 ZINC000000537891    0.1200
40     H40    -7.8099   -0.0012    5.5673 H        1 ZINC000000537891    0.1200
41     H41    -6.1928   -2.6816    3.7357 H        1 ZINC000000537891    0.1400
42     H42    -5.9525   -1.2524    2.7024 H        1 ZINC000000537891    0.1400
43     H43    -3.8749   -2.5896    2.8430 H        1 ZINC000000537891    0.1200
44     H44    -3.8924   -2.4396    4.6169 H        1 ZINC000000537891    0.0700
45     H45     0.4167   -1.9869    5.4981 H        1 ZINC000000537891    0.1600
46     H46     2.5874   -0.1137    0.3116 H        1 ZINC000000537891    0.1700
@<TRIPOS>BOND
1     1     2     1
2     1     29    1
3     1     30    1
4     1     31    1
5     2     3     1
6     2     21    1
7     2     4     1
8     4     5     1
9     4     32    1
10    4     33    1
11    5     6     1
12    6     20    ar
13    6     7     ar
14    7     8     1
15    7     16    ar
16    8     15    1
17    8     9     1
18    9     10    1
19    9     34    1
20    9     35    1
21    10    11    1
22    10    36    1
23    10    37    1
24    11    12    1
25    11    13    1
26    11    14    1
27    13    38    1
28    13    39    1
29    13    40    1
30    14    15    1
31    14    41    1
32    14    42    1
33    15    43    1
34    15    44    1
35    16    17    1
36    16    18    ar
37    18    19    ar
38    18    45    1
39    19    27    1
40    19    20    ar
41    20    21    1
42    21    22    1
43    22    23    2
44    22    46    1
45    23    24    1
46    23    27    1
47    24    25    ar
48    24    26    ar
49    27    28    2
@<TRIPOS>SUBSTRUCTURE
1   ZINC000000537891 1     RESIDUE    1   A     ZIN   1
