@<TRIPOS>MOLECULE
ZINC000001886617
55    57    1     0     0
SMALL
USER_CHARGES
@<TRIPOS>ATOM
1      C1      0.1373    1.2159   -0.3901 C.3      1 ZINC000001886617   -0.1700
2      C2      0.0767   -0.2951   -0.1577 C.3      1 ZINC000001886617    0.1300
3      C3      0.7915   -1.0162   -1.3023 C.3      1 ZINC000001886617   -0.1700
4      N4      0.7337   -0.6209    1.1106 N.pl3    1 ZINC000001886617   -0.4700
5      C5      2.0520   -0.3499    1.4092 C.ar     1 ZINC000001886617    0.1100
6      C6      3.0807    0.2529    0.6916 C.ar     1 ZINC000001886617   -0.1300
7      C7      4.3271    0.3898    1.2636 C.ar     1 ZINC000001886617   -0.1000
8      C8      4.5691   -0.0679    2.5510 C.ar     1 ZINC000001886617   -0.1500
9      C9      3.5732   -0.6634    3.2736 C.ar     1 ZINC000001886617   -0.0700
10     C10     2.3035   -0.8117    2.7136 C.ar     1 ZINC000001886617   -0.0900
11     C11     1.0423   -1.3892    3.1990 C.2      1 ZINC000001886617   -0.1400
12     C12     0.8024   -2.0066    4.5219 C.ar     1 ZINC000001886617   -0.0100
13     C13     1.4486   -3.1942    4.8680 C.ar     1 ZINC000001886617   -0.0800
14     C14     1.2214   -3.7656    6.1027 C.ar     1 ZINC000001886617   -0.1500
15     C15     0.3529   -3.1628    6.9986 C.ar     1 ZINC000001886617    0.0900
16     F16     0.1338   -3.7267    8.2066 F        1 ZINC000001886617   -0.1400
17     C17    -0.2913   -1.9836    6.6601 C.ar     1 ZINC000001886617   -0.1500
18     C18    -0.0664   -1.4004    5.4305 C.ar     1 ZINC000001886617   -0.0700
19     C19     0.1230   -1.2364    2.1788 C.2      1 ZINC000001886617    0.1500
20     C20    -1.2792   -1.6713    2.2237 C.2      1 ZINC000001886617   -0.1300
21     C21    -1.5737   -2.9423    2.4882 C.2      1 ZINC000001886617   -0.1300
22     C22    -3.0030   -3.4149    2.4183 C.3      1 ZINC000001886617    0.1400
23     H23    -3.3354   -3.7152    3.4120 H        1 ZINC000001886617    0.1100
24     O24    -3.8323   -2.3545    1.9388 O.3      1 ZINC000001886617   -0.5400
25     C25    -3.0995   -4.6084    1.4658 C.3      1 ZINC000001886617   -0.1800
26     C26    -4.5240   -5.1662    1.4899 C.3      1 ZINC000001886617    0.1400
27     H27    -4.8033   -5.4053    2.5160 H        1 ZINC000001886617    0.0900
28     O28    -5.4266   -4.1902    0.9657 O.3      1 ZINC000001886617   -0.5300
29     C29    -4.5901   -6.4332    0.6348 C.3      1 ZINC000001886617   -0.2200
30     C30    -5.9594   -7.0506    0.7566 C.2      1 ZINC000001886617    0.4900
31     O31    -6.8042   -6.5258    1.4618 O.co2    1 ZINC000001886617   -0.6800
32     O32    -6.2225   -8.0748    0.1498 O.co2    1 ZINC000001886617   -0.7100
33     H33     1.1785    1.5363   -0.4274 H        1 ZINC000001886617    0.0700
34     H34    -0.3515    1.4583   -1.3337 H        1 ZINC000001886617    0.0800
35     H35    -0.3719    1.7296    0.4253 H        1 ZINC000001886617    0.0600
36     H36    -0.9645   -0.6155   -0.1204 H        1 ZINC000001886617    0.1000
37     H37     1.8327   -0.6958   -1.3396 H        1 ZINC000001886617    0.0700
38     H38     0.7483   -2.0927   -1.1367 H        1 ZINC000001886617    0.0600
39     H39     0.3027   -0.7738   -2.2459 H        1 ZINC000001886617    0.0800
40     H40     2.9029    0.6122   -0.3112 H        1 ZINC000001886617    0.1200
41     H41     5.1236    0.8577    0.7041 H        1 ZINC000001886617    0.1200
42     H42     5.5513    0.0469    2.9851 H        1 ZINC000001886617    0.1200
43     H43     3.7682   -1.0177    4.2750 H        1 ZINC000001886617    0.1200
44     H44     2.1251   -3.6652    4.1702 H        1 ZINC000001886617    0.1300
45     H45     1.7209   -4.6847    6.3715 H        1 ZINC000001886617    0.1300
46     H46    -0.9674   -1.5181    7.3619 H        1 ZINC000001886617    0.1300
47     H47    -0.5690   -0.4813    5.1676 H        1 ZINC000001886617    0.1300
48     H48    -2.0713   -0.9600    2.0420 H        1 ZINC000001886617    0.1300
49     H49    -0.7884   -3.6348    2.7530 H        1 ZINC000001886617    0.1200
50     H50    -3.5936   -2.0363    1.0575 H        1 ZINC000001886617    0.3600
51     H51    -2.8523   -4.2867    0.4541 H        1 ZINC000001886617    0.0600
52     H52    -2.4006   -5.3829    1.7818 H        1 ZINC000001886617    0.0800
53     H53    -5.2377   -3.9293    0.0539 H        1 ZINC000001886617    0.3500
54     H54    -4.3976   -6.1787   -0.4074 H        1 ZINC000001886617    0.0600
55     H55    -3.8391   -7.1440    0.9799 H        1 ZINC000001886617    0.0600
@<TRIPOS>BOND
1     1     2     1
2     1     33    1
3     1     34    1
4     1     35    1
5     2     3     1
6     2     4     1
7     2     36    1
8     3     37    1
9     3     38    1
10    3     39    1
11    4     19    1
12    4     5     1
13    5     10    ar
14    5     6     ar
15    6     7     ar
16    6     40    1
17    7     8     ar
18    7     41    1
19    8     9     ar
20    8     42    1
21    9     10    ar
22    9     43    1
23    10    11    1
24    11    12    1
25    11    19    2
26    12    18    ar
27    12    13    ar
28    13    14    ar
29    13    44    1
30    14    15    ar
31    14    45    1
32    15    16    1
33    15    17    ar
34    17    18    ar
35    17    46    1
36    18    47    1
37    19    20    1
38    20    21    2
39    20    48    1
40    21    22    1
41    21    49    1
42    22    23    1
43    22    24    1
44    22    25    1
45    24    50    1
46    25    26    1
47    25    51    1
48    25    52    1
49    26    27    1
50    26    28    1
51    26    29    1
52    28    53    1
53    29    30    1
54    29    54    1
55    29    55    1
56    30    31    ar
57    30    32    ar
@<TRIPOS>SUBSTRUCTURE
1   ZINC000001886617 1     RESIDUE    1   A     ZIN   1
