@<TRIPOS>MOLECULE
ZINC000004577910
18    18    1     0     0
SMALL
USER_CHARGES
@<TRIPOS>ATOM
1      C1     -0.0178    1.4608    0.0101 C.3      1 ZINC000004577910    0.0400
2      N2      0.0021   -0.0041    0.0020 N.ar     1 ZINC000004577910   -0.4200
3      C3      0.0054   -0.6603   -1.1706 C.ar     1 ZINC000004577910    0.1200
4      C4      0.0237   -2.0209   -1.2099 C.ar     1 ZINC000004577910   -0.1900
5      C5      0.0393   -2.7514   -0.0226 C.ar     1 ZINC000004577910   -0.0100
6      C6      0.0358   -2.0743    1.1852 C.ar     1 ZINC000004577910   -0.1600
7      C7      0.0225   -0.6813    1.1819 C.ar     1 ZINC000004577910    0.2900
8      C8      0.0191    0.0547    2.4496 C.2      1 ZINC000004577910   -0.2900
9      N9      0.0285   -0.5926    3.5772 N.2      1 ZINC000004577910   -0.2800
10     O10     0.0257    0.0189    4.6306 O.3      1 ZINC000004577910   -0.1700
11     H11     1.0048    1.8381    0.0023 H        1 ZINC000004577910    0.1000
12     H12    -0.5450    1.8219   -0.8730 H        1 ZINC000004577910    0.1000
13     H13    -0.5280    1.8123    0.9069 H        1 ZINC000004577910    0.1100
14     H14    -0.0069   -0.1007   -2.0943 H        1 ZINC000004577910    0.1800
15     H15     0.0258   -2.5341   -2.1602 H        1 ZINC000004577910    0.1600
16     H16     0.0535   -3.8311   -0.0446 H        1 ZINC000004577910    0.1500
17     H17     0.0477   -2.6190    2.1177 H        1 ZINC000004577910    0.1700
18     H18     0.0087    1.1347    2.4470 H        1 ZINC000004577910    0.1000
@<TRIPOS>BOND
1     1     2     1
2     1     11    1
3     1     12    1
4     1     13    1
5     2     7     ar
6     2     3     ar
7     3     4     ar
8     3     14    1
9     4     5     ar
10    4     15    1
11    5     6     ar
12    5     16    1
13    6     7     ar
14    6     17    1
15    7     8     1
16    8     9     2
17    8     18    1
18    9     10    1
@<TRIPOS>SUBSTRUCTURE
1   ZINC000004577910 1     RESIDUE    1   A     ZIN   1
