@<TRIPOS>MOLECULE
ZINC000003985982
60    65    1     0     0
SMALL
USER_CHARGES
@<TRIPOS>ATOM
1      C1     -1.1138    1.4848    1.1070 C.3      1 ZINC000003985982    0.0400
2      O2     -1.1708    0.0356    1.1757 O.3      1 ZINC000003985982   -0.3600
3      C3     -1.1855   -0.6297    0.0100 C.2      1 ZINC000003985982    0.4600
4      O4     -1.1519   -0.0212   -1.0333 O.2      1 ZINC000003985982   -0.4800
5      C5     -1.2439   -2.1355    0.0025 C.3      1 ZINC000003985982   -0.0700
6      H6     -0.6616   -2.5282    0.8360 H        1 ZINC000003985982    0.1200
7      C7     -0.6739   -2.6656   -1.3179 C.3      1 ZINC000003985982   -0.0800
8      C8     -1.5310   -2.1871   -2.4737 C.2      1 ZINC000003985982   -0.0200
9      C9     -0.9198   -1.6032   -3.5034 C.2      1 ZINC000003985982   -0.2100
10     C10    -1.6955   -1.1187   -4.6491 C.2      1 ZINC000003985982    0.3900
11     O11    -1.2469   -0.2930   -5.4165 O.2      1 ZINC000003985982   -0.4600
12     C12    -3.0841   -1.6984   -4.8301 C.3      1 ZINC000003985982   -0.1600
13     C13    -3.7874   -1.6337   -3.4741 C.3      1 ZINC000003985982   -0.1100
14     C14    -3.0177   -2.4003   -2.4146 C.3      1 ZINC000003985982    0.0000
15     C15    -3.3073   -3.8935   -2.5796 C.3      1 ZINC000003985982   -0.1500
16     C16    -3.5026   -1.9752   -1.0206 C.3      1 ZINC000003985982    0.0400
17     O17    -3.8916   -0.6035   -0.8945 O.3      1 ZINC000003985982   -0.3400
18     C18    -4.9474   -1.5729   -0.8081 C.3      1 ZINC000003985982    0.0200
19     H19    -5.6245   -1.6582   -1.6580 H        1 ZINC000003985982    0.1300
20     C20    -5.6025   -1.6923    0.5762 C.3      1 ZINC000003985982   -0.1100
21     C21    -4.7946   -2.6658    1.4204 C.3      1 ZINC000003985982   -0.0500
22     C22    -4.8766   -4.0749    0.8301 C.3      1 ZINC000003985982   -0.1400
23     C23    -3.3233   -2.1566    1.4459 C.3      1 ZINC000003985982   -0.0800
24     H24    -3.2774   -1.0759    1.5806 H        1 ZINC000003985982    0.1000
25     C25    -2.7430   -2.8975    2.6640 C.3      1 ZINC000003985982   -0.1100
26     C26    -3.8955   -2.8573    3.6995 C.3      1 ZINC000003985982   -0.1300
27     C27    -5.1931   -2.6842    2.8921 C.3      1 ZINC000003985982    0.1200
28     C28    -5.8929   -1.3728    3.2881 C.3      1 ZINC000003985982   -0.1600
29     C29    -6.9106   -1.8732    4.3421 C.3      1 ZINC000003985982   -0.1900
30     C30    -7.1097   -3.3330    3.9934 C.2      1 ZINC000003985982    0.4800
31     O31    -8.0202   -4.0215    4.3893 O.2      1 ZINC000003985982   -0.4600
32     O32    -6.1286   -3.7498    3.1805 O.3      1 ZINC000003985982   -0.3200
33     C33    -2.6954   -2.5925    0.1314 C.3      1 ZINC000003985982   -0.0500
34     H34    -2.7312   -3.6794    0.0573 H        1 ZINC000003985982    0.1200
35     H35    -1.1074    1.8965    2.1163 H        1 ZINC000003985982    0.1000
36     H36    -0.2063    1.7884    0.5851 H        1 ZINC000003985982    0.0600
37     H37    -1.9848    1.8575    0.5681 H        1 ZINC000003985982    0.0600
38     H38     0.3448   -2.2995   -1.4460 H        1 ZINC000003985982    0.0900
39     H39    -0.6670   -3.7554   -1.2983 H        1 ZINC000003985982    0.1000
40     H40     0.1538   -1.4858   -3.4939 H        1 ZINC000003985982    0.1300
41     H41    -3.6378   -1.1116   -5.5630 H        1 ZINC000003985982    0.0900
42     H42    -3.0127   -2.7344   -5.1614 H        1 ZINC000003985982    0.1000
43     H43    -3.8751   -0.5915   -3.1671 H        1 ZINC000003985982    0.0800
44     H44    -4.7855   -2.0615   -3.5692 H        1 ZINC000003985982    0.0800
45     H45    -2.9927   -4.2171   -3.5718 H        1 ZINC000003985982    0.0700
46     H46    -2.7594   -4.4557   -1.8234 H        1 ZINC000003985982    0.0700
47     H47    -4.3761   -4.0716   -2.4613 H        1 ZINC000003985982    0.0700
48     H48    -5.6168   -0.7151    1.0589 H        1 ZINC000003985982    0.0900
49     H49    -6.6219   -2.0625    0.4670 H        1 ZINC000003985982    0.0900
50     H50    -4.4665   -4.0702   -0.1798 H        1 ZINC000003985982    0.0700
51     H51    -4.3039   -4.7632    1.4516 H        1 ZINC000003985982    0.0700
52     H52    -5.9180   -4.3952    0.7978 H        1 ZINC000003985982    0.0700
53     H53    -2.4964   -3.9271    2.4048 H        1 ZINC000003985982    0.0800
54     H54    -1.8653   -2.3768    3.0470 H        1 ZINC000003985982    0.0800
55     H55    -3.9261   -3.7902    4.2624 H        1 ZINC000003985982    0.0800
56     H56    -3.7609   -2.0144    4.3774 H        1 ZINC000003985982    0.0800
57     H57    -5.1861   -0.6702    3.7297 H        1 ZINC000003985982    0.1000
58     H58    -6.4020   -0.9276    2.4333 H        1 ZINC000003985982    0.1000
59     H59    -6.5007   -1.7728    5.3471 H        1 ZINC000003985982    0.1100
60     H60    -7.8503   -1.3279    4.2551 H        1 ZINC000003985982    0.1100
@<TRIPOS>BOND
1     1     2     1
2     1     35    1
3     1     36    1
4     1     37    1
5     2     3     1
6     3     4     2
7     3     5     1
8     5     6     1
9     5     33    1
10    5     7     1
11    7     8     1
12    7     38    1
13    7     39    1
14    8     14    1
15    8     9     2
16    9     10    1
17    9     40    1
18    10    11    2
19    10    12    1
20    12    13    1
21    12    41    1
22    12    42    1
23    13    14    1
24    13    43    1
25    13    44    1
26    14    15    1
27    14    16    1
28    15    45    1
29    15    46    1
30    15    47    1
31    16    18    1
32    16    33    1
33    16    17    1
34    17    18    1
35    18    19    1
36    18    20    1
37    20    21    1
38    20    48    1
39    20    49    1
40    21    27    1
41    21    22    1
42    21    23    1
43    22    50    1
44    22    51    1
45    22    52    1
46    23    24    1
47    23    25    1
48    23    33    1
49    25    26    1
50    25    53    1
51    25    54    1
52    26    27    1
53    26    55    1
54    26    56    1
55    27    32    1
56    27    28    1
57    28    29    1
58    28    57    1
59    28    58    1
60    29    30    1
61    29    59    1
62    29    60    1
63    30    31    2
64    30    32    1
65    33    34    1
@<TRIPOS>SUBSTRUCTURE
1   ZINC000003985982 1     RESIDUE    1   A     ZIN   1
