@<TRIPOS>MOLECULE
ZINC000003827556
41    44    1     0     0
SMALL
USER_CHARGES
@<TRIPOS>ATOM
1      N1      0.6022   -0.8038   -3.5416 N.pl3    1 ZINC000003827556   -0.8400
2      C2      0.2670   -1.0975   -2.2221 C.ar     1 ZINC000003827556    0.3900
3      N3     -0.9129   -1.6313   -1.9496 N.ar     1 ZINC000003827556   -0.4900
4      C4     -1.2714   -1.9259   -0.7087 C.ar     1 ZINC000003827556    0.3600
5      N5     -2.5269   -2.4883   -0.4675 N.pl3    1 ZINC000003827556   -0.4400
6      C6     -2.6349   -3.8240   -0.4235 C.2      1 ZINC000003827556    0.1600
7      C7     -3.8409   -4.4563   -0.1902 C.2      1 ZINC000003827556   -0.2700
8      C8     -3.9190   -5.9201   -0.1494 C.2      1 ZINC000003827556    0.5400
9      O9     -2.9105   -6.5919   -0.3229 O.co2    1 ZINC000003827556   -0.7000
10     O10    -4.9927   -6.4702    0.0581 O.co2    1 ZINC000003827556   -0.6600
11     C11    -5.0472   -3.6364    0.0174 C.2      1 ZINC000003827556    0.4200
12     O12    -6.1335   -4.1477    0.2270 O.2      1 ZINC000003827556   -0.4300
13     C13    -4.8864   -2.1737   -0.0381 C.ar     1 ZINC000003827556   -0.1700
14     C14    -5.9772   -1.3214    0.1483 C.ar     1 ZINC000003827556   -0.0300
15     C15    -5.7994    0.0323    0.0919 C.ar     1 ZINC000003827556    0.0300
16     F16    -6.8543    0.8570    0.2721 F        1 ZINC000003827556   -0.1300
17     C17    -4.5323    0.5674   -0.1506 C.ar     1 ZINC000003827556    0.1100
18     N18    -4.3645    1.9498   -0.2047 N.3      1 ZINC000003827556   -0.4100
19     C19    -5.5863    2.6117   -0.6987 C.3      1 ZINC000003827556    0.0100
20     C20    -4.6836    3.5343   -1.5298 C.3      1 ZINC000003827556    0.0700
21     O21    -4.2416    4.7018   -0.8344 O.3      1 ZINC000003827556   -0.5300
22     C22    -3.7052    2.3534   -1.4606 C.3      1 ZINC000003827556   -0.0200
23     C23    -3.4400   -0.2661   -0.3374 C.ar     1 ZINC000003827556   -0.1000
24     Cl24   -1.8699    0.4107   -0.6381 Cl       1 ZINC000003827556   -0.0400
25     C25    -3.6050   -1.6450   -0.2786 C.ar     1 ZINC000003827556    0.2300
26     C26    -0.4118   -1.6819    0.3554 C.ar     1 ZINC000003827556    0.0400
27     F27    -0.7841   -1.9858    1.6180 F        1 ZINC000003827556   -0.1100
28     C28     0.8341   -1.1226    0.1063 C.ar     1 ZINC000003827556   -0.0900
29     C29     1.1791   -0.8316   -1.2042 C.ar     1 ZINC000003827556    0.0100
30     F30     2.3820   -0.2867   -1.4894 F        1 ZINC000003827556   -0.1200
31     H31     1.4358   -0.3497   -3.7407 H        1 ZINC000003827556    0.4100
32     H32     0.0038   -1.0570   -4.2618 H        1 ZINC000003827556    0.4100
33     H33    -1.7506   -4.4251   -0.5758 H        1 ZINC000003827556    0.1700
34     H34    -6.9586   -1.7313    0.3360 H        1 ZINC000003827556    0.1600
35     H35    -6.2177    1.9615   -1.3043 H        1 ZINC000003827556    0.1000
36     H36    -6.1421    3.1342    0.0798 H        1 ZINC000003827556    0.1100
37     H37    -5.0620    3.7463   -2.5297 H        1 ZINC000003827556    0.0900
38     H38    -3.6732    5.2811   -1.3601 H        1 ZINC000003827556    0.3800
39     H39    -2.6668    2.6570   -1.3279 H        1 ZINC000003827556    0.1000
40     H40    -3.8346    1.6343   -2.2695 H        1 ZINC000003827556    0.0900
41     H41     1.5212   -0.9228    0.9152 H        1 ZINC000003827556    0.1700
@<TRIPOS>BOND
1     1     2     1
2     1     31    1
3     1     32    1
4     2     29    ar
5     2     3     ar
6     3     4     ar
7     4     5     1
8     4     26    ar
9     5     25    1
10    5     6     1
11    6     7     2
12    6     33    1
13    7     8     1
14    7     11    1
15    8     9     ar
16    8     10    ar
17    11    12    2
18    11    13    1
19    13    25    ar
20    13    14    ar
21    14    15    ar
22    14    34    1
23    15    16    1
24    15    17    ar
25    17    18    1
26    17    23    ar
27    18    22    1
28    18    19    1
29    19    20    1
30    19    35    1
31    19    36    1
32    20    21    1
33    20    22    1
34    20    37    1
35    21    38    1
36    22    39    1
37    22    40    1
38    23    24    1
39    23    25    ar
40    26    27    1
41    26    28    ar
42    28    29    ar
43    28    41    1
44    29    30    1
@<TRIPOS>SUBSTRUCTURE
1   ZINC000003827556 1     RESIDUE    1   A     ZIN   1
