@<TRIPOS>MOLECULE
ZINC000003806104
66    67    1     0     0
SMALL
USER_CHARGES
@<TRIPOS>ATOM
1      C1     -0.0187    1.5258    0.0104 C.3      1 ZINC000003806104   -0.1500
2      C2      0.0021   -0.0041    0.0020 C.3      1 ZINC000003806104   -0.1200
3      C3      0.7421   -0.5109    1.2415 C.3      1 ZINC000003806104   -0.1100
4      C4      0.7628   -2.0407    1.2331 C.3      1 ZINC000003806104   -0.6100
5      S5      1.6402   -2.6417    2.7027 S.o2     1 ZINC000003806104    2.6100
6      O6      3.0233   -2.3263    2.6214 O.2      1 ZINC000003806104   -0.9700
7      O7      0.8929   -2.3621    3.8786 O.2      1 ZINC000003806104   -0.9800
8      N8      1.5889   -4.2914    2.5688 N.am     1 ZINC000003806104   -1.0900
9      C9      2.2843   -4.9588    1.4655 C.3      1 ZINC000003806104    0.0800
10     H10     3.1031   -4.3287    1.1181 H        1 ZINC000003806104    0.0900
11     C11     2.8419   -6.2986    1.9502 C.3      1 ZINC000003806104   -0.0700
12     C12     3.8978   -6.0540    2.9972 C.ar     1 ZINC000003806104   -0.0900
13     C13     5.2191   -5.8966    2.6212 C.ar     1 ZINC000003806104   -0.0700
14     C14     6.1889   -5.6723    3.5791 C.ar     1 ZINC000003806104   -0.1500
15     C15     5.8362   -5.6046    4.9191 C.ar     1 ZINC000003806104    0.1100
16     O16     6.7884   -5.3837    5.8633 O.3      1 ZINC000003806104   -0.3200
17     C17     6.3527   -5.3262    7.2230 C.3      1 ZINC000003806104    0.0600
18     C18     7.5556   -5.0720    8.1337 C.3      1 ZINC000003806104   -0.1200
19     C19     7.0892   -5.0105    9.5895 C.3      1 ZINC000003806104   -0.1200
20     C20     8.2921   -4.7563   10.5002 C.3      1 ZINC000003806104   -0.1200
21     C21     7.8256   -4.6947   11.9560 C.3      1 ZINC000003806104   -0.1000
22     C22     7.2904   -6.0653   12.3806 C.3      1 ZINC000003806104   -0.1500
23     C23     6.8997   -6.0184   13.8594 C.3      1 ZINC000003806104   -0.0100
24     N24     8.0757   -5.6784   14.6693 N.4      1 ZINC000003806104   -0.5100
25     H25     7.8274   -5.7008   15.6470 H        1 ZINC000003806104    0.4300
26     H26     8.8089   -6.3492   14.4941 H        1 ZINC000003806104    0.4300
27     C27     8.5514   -4.3351   14.3174 C.3      1 ZINC000003806104   -0.0100
28     C28     9.0055   -4.3172   12.8563 C.3      1 ZINC000003806104   -0.1500
29     C29     4.5097   -5.7625    5.2937 C.ar     1 ZINC000003806104   -0.2100
30     C30     3.5430   -5.9817    4.3315 C.ar     1 ZINC000003806104   -0.0800
31     C31     1.3183   -5.1966    0.3335 C.2      1 ZINC000003806104    0.4800
32     O32     0.1567   -4.8416    0.4386 O.co2    1 ZINC000003806104   -0.6800
33     O33     1.6985   -5.7440   -0.6874 O.co2    1 ZINC000003806104   -0.6900
34     H34     1.0039    1.9031    0.0027 H        1 ZINC000003806104    0.0500
35     H35    -0.5459    1.8868   -0.8726 H        1 ZINC000003806104    0.0600
36     H36    -0.5289    1.8773    0.9072 H        1 ZINC000003806104    0.0500
37     H37    -1.0205   -0.3814    0.0098 H        1 ZINC000003806104    0.0700
38     H38     0.5123   -0.3556   -0.8948 H        1 ZINC000003806104    0.0700
39     H39     1.7647   -0.1336    1.2338 H        1 ZINC000003806104    0.0700
40     H40     0.2319   -0.1594    2.1383 H        1 ZINC000003806104    0.0700
41     H41    -0.2598   -2.4180    1.2409 H        1 ZINC000003806104    0.1400
42     H42     1.2730   -2.3923    0.3363 H        1 ZINC000003806104    0.1300
43     H43     1.0984   -4.8159    3.2209 H        1 ZINC000003806104    0.4100
44     H44     2.0358   -6.8938    2.3792 H        1 ZINC000003806104    0.0700
45     H45     3.2815   -6.8348    1.1091 H        1 ZINC000003806104    0.0900
46     H46     5.4931   -5.9494    1.5779 H        1 ZINC000003806104    0.1300
47     H47     7.2209   -5.5502    3.2850 H        1 ZINC000003806104    0.1300
48     H48     5.6314   -4.5173    7.3395 H        1 ZINC000003806104    0.0600
49     H49     5.8847   -6.2723    7.4949 H        1 ZINC000003806104    0.0600
50     H50     8.2769   -5.8809    8.0171 H        1 ZINC000003806104    0.0700
51     H51     8.0236   -4.1259    7.8618 H        1 ZINC000003806104    0.0800
52     H52     6.3679   -4.2016    9.7061 H        1 ZINC000003806104    0.0700
53     H53     6.6211   -5.9566    9.8614 H        1 ZINC000003806104    0.0700
54     H54     9.0134   -5.5651   10.3836 H        1 ZINC000003806104    0.0700
55     H55     8.7601   -3.8101   10.2283 H        1 ZINC000003806104    0.0800
56     H56     7.0379   -3.9478   12.0551 H        1 ZINC000003806104    0.0900
57     H57     6.4155   -6.3161   11.7808 H        1 ZINC000003806104    0.1200
58     H58     8.0629   -6.8197   12.2319 H        1 ZINC000003806104    0.0900
59     H59     6.1271   -5.2639   14.0069 H        1 ZINC000003806104    0.1300
60     H60     6.5181   -6.9926   14.1649 H        1 ZINC000003806104    0.1300
61     H61     7.7435   -3.6165   14.4552 H        1 ZINC000003806104    0.1300
62     H62     9.3890   -4.0666   14.9611 H        1 ZINC000003806104    0.1300
63     H63     9.8136   -5.0354   12.7175 H        1 ZINC000003806104    0.0900
64     H64     9.3566   -3.3185   12.5965 H        1 ZINC000003806104    0.1100
65     H65     4.2327   -5.7105    6.3362 H        1 ZINC000003806104    0.1200
66     H66     2.5102   -6.1043    4.6226 H        1 ZINC000003806104    0.1200
@<TRIPOS>BOND
1     1     2     1
2     1     34    1
3     1     35    1
4     1     36    1
5     2     3     1
6     2     37    1
7     2     38    1
8     3     4     1
9     3     39    1
10    3     40    1
11    4     5     1
12    4     41    1
13    4     42    1
14    5     6     2
15    5     7     2
16    5     8     am
17    8     9     1
18    8     43    1
19    9     10    1
20    9     11    1
21    9     31    1
22    11    12    1
23    11    44    1
24    11    45    1
25    12    30    ar
26    12    13    ar
27    13    14    ar
28    13    46    1
29    14    15    ar
30    14    47    1
31    15    16    1
32    15    29    ar
33    16    17    1
34    17    18    1
35    17    48    1
36    17    49    1
37    18    19    1
38    18    50    1
39    18    51    1
40    19    20    1
41    19    52    1
42    19    53    1
43    20    21    1
44    20    54    1
45    20    55    1
46    21    28    1
47    21    22    1
48    21    56    1
49    22    23    1
50    22    57    1
51    22    58    1
52    23    24    1
53    23    59    1
54    23    60    1
55    24    25    1
56    24    26    1
57    24    27    1
58    27    28    1
59    27    61    1
60    27    62    1
61    28    63    1
62    28    64    1
63    29    30    ar
64    29    65    1
65    30    66    1
66    31    32    ar
67    31    33    ar
@<TRIPOS>SUBSTRUCTURE
1   ZINC000003806104 1     RESIDUE    1   A     ZIN   1
