@<TRIPOS>MOLECULE
ZINC000000000693
27    27    1     0     0
SMALL
USER_CHARGES
@<TRIPOS>ATOM
1      C1     -0.0187    1.5258    0.0104 C.3      1 ZINC000000000693   -0.1600
2      C2      0.0021   -0.0041    0.0020 C.3      1 ZINC000000000693   -0.0100
3      N3      0.7126   -0.4907    1.1921 N.4      1 ZINC000000000693   -0.6100
4      H4      0.2403   -0.1653    2.0223 H        1 ZINC000000000693    0.4300
5      H5      0.7263   -1.4996    1.1866 H        1 ZINC000000000693    0.4300
6      H6      1.6592   -0.1414    1.1850 H        1 ZINC000000000693    0.4100
7      C7      0.7182   -0.4975   -1.2568 C.3      1 ZINC000000000693   -0.0800
8      C8      2.1652   -0.0794   -1.2080 C.ar     1 ZINC000000000693   -0.1200
9      C9      2.5502    1.1378   -1.7391 C.ar     1 ZINC000000000693   -0.0900
10     C10     3.8761    1.5233   -1.6956 C.ar     1 ZINC000000000693   -0.1400
11     C11     4.8215    0.6883   -1.1180 C.ar     1 ZINC000000000693    0.1100
12     O12     6.1263    1.0655   -1.0736 O.3      1 ZINC000000000693   -0.5000
13     C13     4.4326   -0.5323   -0.5855 C.ar     1 ZINC000000000693   -0.1400
14     C14     3.1047   -0.9111   -0.6271 C.ar     1 ZINC000000000693   -0.1300
15     C15    -1.4117   -0.5257    0.0127 C.2      1 ZINC000000000693    0.5000
16     O16    -2.1751   -0.2365   -0.8929 O.co2    1 ZINC000000000693   -0.6300
17     O17    -1.7922   -1.2369    0.9270 O.co2    1 ZINC000000000693   -0.6700
18     H18     1.0039    1.9031    0.0027 H        1 ZINC000000000693    0.0700
19     H19    -0.5459    1.8868   -0.8726 H        1 ZINC000000000693    0.1000
20     H20    -0.5289    1.8773    0.9072 H        1 ZINC000000000693    0.0700
21     H21     0.6556   -1.5845   -1.3079 H        1 ZINC000000000693    0.0900
22     H22     0.2444   -0.0644   -2.1377 H        1 ZINC000000000693    0.1200
23     H23     1.8139    1.7875   -2.1886 H        1 ZINC000000000693    0.1400
24     H24     4.1764    2.4738   -2.1112 H        1 ZINC000000000693    0.1300
25     H25     6.3660    1.5599   -0.2779 H        1 ZINC000000000693    0.3900
26     H26     5.1667   -1.1842   -0.1356 H        1 ZINC000000000693    0.1300
27     H27     2.8014   -1.8610   -0.2124 H        1 ZINC000000000693    0.1300
@<TRIPOS>BOND
1     1     2     1
2     1     18    1
3     1     19    1
4     1     20    1
5     2     3     1
6     2     7     1
7     2     15    1
8     3     4     1
9     3     5     1
10    3     6     1
11    7     8     1
12    7     21    1
13    7     22    1
14    8     14    ar
15    8     9     ar
16    9     10    ar
17    9     23    1
18    10    11    ar
19    10    24    1
20    11    12    1
21    11    13    ar
22    12    25    1
23    13    14    ar
24    13    26    1
25    14    27    1
26    15    16    ar
27    15    17    ar
@<TRIPOS>SUBSTRUCTURE
1   ZINC000000000693 1     RESIDUE    1   A     ZIN   1
