@<TRIPOS>MOLECULE
ZINC000013648755
48    52    1     0     0
SMALL
USER_CHARGES
@<TRIPOS>ATOM
1      N1     -0.2572   -1.5757   -0.1848 N.1      1 ZINC000013648755   -0.3900
2      C2     -0.1912   -0.4572    0.0024 C.1      1 ZINC000013648755    0.2000
3      C3     -0.1056    0.9922    0.2448 C.3      1 ZINC000013648755    0.2200
4      H4      0.9338    1.3021    0.3526 H        1 ZINC000013648755    0.1400
5      C5     -0.9263    1.3861    1.4986 C.3      1 ZINC000013648755   -0.1000
6      C6     -1.2453    2.8774    1.2464 C.3      1 ZINC000013648755   -0.1500
7      H7     -0.8421    3.6059    1.9498 H        1 ZINC000013648755    0.1300
8      C8     -2.4989    3.2221    0.4409 C.3      1 ZINC000013648755   -0.1500
9      C9     -1.1123    3.0617   -0.2767 C.3      1 ZINC000013648755    0.0600
10     H10    -0.6288    3.9404   -0.7037 H        1 ZINC000013648755    0.1400
11     N11    -0.7648    1.7446   -0.8475 N.am     1 ZINC000013648755   -0.6000
12     C12    -1.0185    1.3088   -2.0973 C.2      1 ZINC000013648755    0.5500
13     O13    -1.6944    1.9800   -2.8481 O.2      1 ZINC000013648755   -0.5000
14     C14    -0.4622   -0.0124   -2.5621 C.3      1 ZINC000013648755    0.0500
15     H15    -0.5498   -0.7457   -1.7604 H        1 ZINC000013648755    0.1200
16     N16    -1.2164   -0.4761   -3.7343 N.3      1 ZINC000013648755   -0.8200
17     C17     1.0109    0.1585   -2.9384 C.3      1 ZINC000013648755   -0.0700
18     C18     1.1273    1.1279   -4.1163 C.3      1 ZINC000013648755   -0.1100
19     C19     2.6004    1.2988   -4.4926 C.3      1 ZINC000013648755   -0.0800
20     H20     2.6833    1.9894   -5.3318 H        1 ZINC000013648755    0.0800
21     C21     3.3713    1.8569   -3.2947 C.3      1 ZINC000013648755   -0.1100
22     C22     3.2550    0.8875   -2.1167 C.3      1 ZINC000013648755   -0.0800
23     H23     3.8042    1.2851   -1.2633 H        1 ZINC000013648755    0.0800
24     C24     3.8408   -0.4693   -2.5130 C.3      1 ZINC000013648755   -0.1400
25     C25     3.0699   -1.0274   -3.7109 C.3      1 ZINC000013648755    0.1400
26     O26     3.6170   -2.2946   -4.0810 O.3      1 ZINC000013648755   -0.5600
27     C27     3.1862   -0.0580   -4.8889 C.3      1 ZINC000013648755   -0.1000
28     C28     1.5967   -1.1982   -3.3346 C.3      1 ZINC000013648755   -0.1300
29     C29     1.7818    0.7166   -1.7404 C.3      1 ZINC000013648755   -0.1200
30     H30    -1.8434    0.8002    1.5593 H        1 ZINC000013648755    0.0900
31     H31    -0.3302    1.2666    2.4033 H        1 ZINC000013648755    0.1100
32     H32    -3.2442    2.4374    0.3110 H        1 ZINC000013648755    0.1000
33     H33    -2.8937    4.2338    0.5341 H        1 ZINC000013648755    0.1100
34     H34    -1.1509    0.1871   -4.4920 H        1 ZINC000013648755    0.3500
35     H35    -0.9051   -1.3904   -4.0261 H        1 ZINC000013648755    0.3500
36     H36     0.5780    0.7303   -4.9698 H        1 ZINC000013648755    0.0700
37     H37     0.7099    2.0945   -3.8340 H        1 ZINC000013648755    0.0700
38     H38     4.4208    1.9786   -3.5627 H        1 ZINC000013648755    0.0700
39     H39     2.9540    2.8234   -3.0124 H        1 ZINC000013648755    0.0700
40     H40     4.8903   -0.3475   -2.7811 H        1 ZINC000013648755    0.0700
41     H41     3.7579   -1.1599   -1.6738 H        1 ZINC000013648755    0.0600
42     H42     3.5767   -2.9601   -3.3806 H        1 ZINC000013648755    0.3800
43     H43     2.6370   -0.4556   -5.7423 H        1 ZINC000013648755    0.0700
44     H44     4.2357    0.0638   -5.1569 H        1 ZINC000013648755    0.0700
45     H45     1.5138   -1.8889   -2.4955 H        1 ZINC000013648755    0.0700
46     H46     1.0475   -1.5959   -4.1881 H        1 ZINC000013648755    0.0700
47     H47     1.3645    1.6832   -1.4581 H        1 ZINC000013648755    0.0800
48     H48     1.6989    0.0260   -0.9013 H        1 ZINC000013648755    0.0600
@<TRIPOS>BOND
1     1     2     3
2     2     3     1
3     3     4     1
4     3     11    1
5     3     5     1
6     5     6     1
7     5     30    1
8     5     31    1
9     6     7     1
10    6     9     1
11    6     8     1
12    8     9     1
13    8     32    1
14    8     33    1
15    9     10    1
16    9     11    1
17    11    12    am
18    12    13    2
19    12    14    1
20    14    15    1
21    14    16    1
22    14    17    1
23    16    34    1
24    16    35    1
25    17    28    1
26    17    29    1
27    17    18    1
28    18    19    1
29    18    36    1
30    18    37    1
31    19    20    1
32    19    27    1
33    19    21    1
34    21    22    1
35    21    38    1
36    21    39    1
37    22    23    1
38    22    24    1
39    22    29    1
40    24    25    1
41    24    40    1
42    24    41    1
43    25    26    1
44    25    27    1
45    25    28    1
46    26    42    1
47    27    43    1
48    27    44    1
49    28    45    1
50    28    46    1
51    29    47    1
52    29    48    1
@<TRIPOS>SUBSTRUCTURE
1   ZINC000013648755 1     RESIDUE    1   A     ZIN   1
