@<TRIPOS>MOLECULE
ZINC000003831128
67    71    1     0     0
SMALL
USER_CHARGES
@<TRIPOS>ATOM
1      C1     -0.9899    1.9807    0.8860 C.3      1 ZINC000003831128   -0.0500
2      C2     -0.6506    0.5484    0.8977 C.1      1 ZINC000003831128   -0.1600
3      C3     -0.3800   -0.5940    0.9070 C.1      1 ZINC000003831128   -0.2100
4      C4     -0.0408   -2.0263    0.9187 C.3      1 ZINC000003831128    0.2600
5      O5      0.3323   -2.4347    2.2363 O.3      1 ZINC000003831128   -0.5400
6      C6      1.1082   -2.3128   -0.0784 C.3      1 ZINC000003831128   -0.1400
7      C7      0.5183   -3.2441   -1.1708 C.3      1 ZINC000003831128   -0.1100
8      C8     -0.9858   -2.9464   -1.1059 C.3      1 ZINC000003831128   -0.0800
9      H9     -1.2088   -1.9946   -1.5881 H        1 ZINC000003831128    0.0800
10     C10    -1.8790   -4.0477   -1.6606 C.3      1 ZINC000003831128   -0.0500
11     H11    -1.6087   -4.9928   -1.1897 H        1 ZINC000003831128    0.1000
12     C12    -1.6685   -4.1656   -3.1608 C.3      1 ZINC000003831128   -0.1100
13     C13    -2.7826   -4.9774   -3.8206 C.3      1 ZINC000003831128   -0.1000
14     C14    -4.0941   -4.3030   -3.5058 C.2      1 ZINC000003831128    0.0300
15     C15    -5.0555   -4.1536   -4.4441 C.2      1 ZINC000003831128   -0.2500
16     C16    -6.2319   -3.4403   -4.1573 C.2      1 ZINC000003831128    0.3900
17     O17    -7.1444   -3.4465   -4.9590 O.2      1 ZINC000003831128   -0.4700
18     C18    -6.3805   -2.6693   -2.8731 C.3      1 ZINC000003831128   -0.1700
19     C19    -5.7117   -3.4333   -1.7268 C.3      1 ZINC000003831128   -0.0800
20     C20    -4.3105   -3.8124   -2.1453 C.2      1 ZINC000003831128   -0.1300
21     C21    -3.3013   -3.7074   -1.2945 C.2      1 ZINC000003831128   -0.0500
22     C22    -3.6221   -3.2627    0.1187 C.3      1 ZINC000003831128   -0.0200
23     H23    -4.6083   -2.7987    0.1335 H        1 ZINC000003831128    0.1000
24     C24    -3.6262   -4.4647    1.0278 C.ar     1 ZINC000003831128   -0.1100
25     C25    -3.5926   -4.2923    2.3995 C.ar     1 ZINC000003831128   -0.0600
26     C26    -3.5962   -5.3915    3.2354 C.ar     1 ZINC000003831128   -0.2000
27     C27    -3.6338   -6.6715    2.6970 C.ar     1 ZINC000003831128    0.2100
28     N28    -3.6381   -7.7855    3.5396 N.pl3    1 ZINC000003831128   -0.6400
29     C29    -3.7158   -7.6055    4.9914 C.3      1 ZINC000003831128    0.0900
30     C30    -3.5649   -9.1339    2.9715 C.3      1 ZINC000003831128    0.0900
31     C31    -3.6676   -6.8411    1.3187 C.ar     1 ZINC000003831128   -0.1900
32     C32    -3.6694   -5.7373    0.4886 C.ar     1 ZINC000003831128   -0.0800
33     C33    -2.5802   -2.2521    0.6230 C.3      1 ZINC000003831128   -0.1000
34     C34    -1.2250   -2.8540    0.4243 C.3      1 ZINC000003831128   -0.0400
35     C35    -1.1825   -4.2552    1.0371 C.3      1 ZINC000003831128   -0.1500
36     H36    -0.1368    2.5590    1.2407 H        1 ZINC000003831128    0.0800
37     H37    -1.2392    2.2867   -0.1300 H        1 ZINC000003831128    0.0800
38     H38    -1.8450    2.1569    1.5387 H        1 ZINC000003831128    0.0800
39     H39     1.0919   -1.9566    2.5960 H        1 ZINC000003831128    0.3800
40     H40     1.4545   -1.3820   -0.5275 H        1 ZINC000003831128    0.0700
41     H41     1.9317   -2.8110    0.4331 H        1 ZINC000003831128    0.0800
42     H42     0.9193   -2.9894   -2.1518 H        1 ZINC000003831128    0.0700
43     H43     0.7146   -4.2896   -0.9328 H        1 ZINC000003831128    0.0800
44     H44    -1.6490   -3.1670   -3.5973 H        1 ZINC000003831128    0.0700
45     H45    -0.7124   -4.6541   -3.3490 H        1 ZINC000003831128    0.0800
46     H46    -2.6307   -5.0035   -4.8996 H        1 ZINC000003831128    0.0900
47     H47    -2.7847   -5.9923   -3.4229 H        1 ZINC000003831128    0.0900
48     H48    -4.9180   -4.5864   -5.4240 H        1 ZINC000003831128    0.1300
49     H49    -5.9093   -1.6924   -2.9806 H        1 ZINC000003831128    0.1000
50     H50    -7.4393   -2.5368   -2.6507 H        1 ZINC000003831128    0.0900
51     H51    -5.6693   -2.7993   -0.8412 H        1 ZINC000003831128    0.0900
52     H52    -6.2836   -4.3346   -1.5060 H        1 ZINC000003831128    0.0800
53     H53    -3.5630   -3.2969    2.8174 H        1 ZINC000003831128    0.1200
54     H54    -3.5696   -5.2562    4.3066 H        1 ZINC000003831128    0.1200
55     H55    -3.8549   -6.5487    5.2196 H        1 ZINC000003831128    0.0800
56     H56    -4.5578   -8.1758    5.3836 H        1 ZINC000003831128    0.0600
57     H57    -2.7925   -7.9580    5.4512 H        1 ZINC000003831128    0.0500
58     H58    -2.5209   -9.4339    2.8813 H        1 ZINC000003831128    0.0500
59     H59    -4.0884   -9.8321    3.6245 H        1 ZINC000003831128    0.0700
60     H60    -4.0308   -9.1388    1.9861 H        1 ZINC000003831128    0.0700
61     H61    -3.6965   -7.8348    0.8968 H        1 ZINC000003831128    0.1200
62     H62    -3.6956   -5.8684   -0.5831 H        1 ZINC000003831128    0.1200
63     H63    -2.6669   -1.3199    0.0649 H        1 ZINC000003831128    0.0700
64     H64    -2.7295   -2.0645    1.6863 H        1 ZINC000003831128    0.0700
65     H65    -1.7975   -4.9307    0.4424 H        1 ZINC000003831128    0.0800
66     H66    -0.1539   -4.6157    1.0487 H        1 ZINC000003831128    0.0500
67     H67    -1.5658   -4.2177    2.0568 H        1 ZINC000003831128    0.0700
@<TRIPOS>BOND
1     1     2     1
2     1     36    1
3     1     37    1
4     1     38    1
5     2     3     3
6     3     4     1
7     4     34    1
8     4     5     1
9     4     6     1
10    5     39    1
11    6     7     1
12    6     40    1
13    6     41    1
14    7     8     1
15    7     42    1
16    7     43    1
17    8     9     1
18    8     34    1
19    8     10    1
20    10    11    1
21    10    21    1
22    10    12    1
23    12    13    1
24    12    44    1
25    12    45    1
26    13    14    1
27    13    46    1
28    13    47    1
29    14    20    1
30    14    15    2
31    15    16    1
32    15    48    1
33    16    17    2
34    16    18    1
35    18    19    1
36    18    49    1
37    18    50    1
38    19    20    1
39    19    51    1
40    19    52    1
41    20    21    2
42    21    22    1
43    22    23    1
44    22    24    1
45    22    33    1
46    24    32    ar
47    24    25    ar
48    25    26    ar
49    25    53    1
50    26    27    ar
51    26    54    1
52    27    28    1
53    27    31    ar
54    28    29    1
55    28    30    1
56    29    55    1
57    29    56    1
58    29    57    1
59    30    58    1
60    30    59    1
61    30    60    1
62    31    32    ar
63    31    61    1
64    32    62    1
65    33    34    1
66    33    63    1
67    33    64    1
68    34    35    1
69    35    65    1
70    35    66    1
71    35    67    1
@<TRIPOS>SUBSTRUCTURE
1   ZINC000003831128 1     RESIDUE    1   A     ZIN   1
