@<TRIPOS>MOLECULE
ZINC000086040406
22   24    0    0    0
SMALL
USER_CHARGES
NO_NAME
@<TRIPOS>ATOM
1 C1       -0.0179     1.4693     0.0101 C.3    1 <0>       0.2000
2 N2        1.3734     1.9560    -0.0006 N.3    1 <0>      -0.6000
3 C3        2.0842     1.4735     1.1972 C.3    1 <0>       0.2000
4 N4        2.0853     0.0001     1.1784 N.3    1 <0>      -0.6000
5 C5        0.7008    -0.5053     1.1991 C.3    1 <0>       0.2000
6 N6        0.0021    -0.0041     0.0020 N.3    1 <0>      -0.6000
7 C7        0.6778    -0.4923    -1.2135 C.3    1 <0>       0.2000
8 N8        2.0624     0.0130    -1.2138 N.3    1 <0>      -0.6000
9 C9        2.0611     1.4865    -1.2168 C.3    1 <0>       0.2000
10 C10       2.7787    -0.4881    -0.0271 C.3    1 <0>       0.2000
11 H11      -0.5230     1.8238     0.9086 H      1 <0>       0.1000
12 H12      -0.5400     1.8334    -0.8747 H      1 <0>       0.1000
13 H13       3.1104     1.8407     1.1867 H      1 <0>       0.1000
14 H14       1.5745     1.8280     2.0931 H      1 <0>       0.1000
15 H15       0.7087    -1.5952     1.1891 H      1 <0>       0.1000
16 H16       0.1939    -0.1481     2.0955 H      1 <0>       0.1000
17 H17       0.6857    -1.5823    -1.2154 H      1 <0>       0.1000
18 H18       0.1539    -0.1255    -2.0962 H      1 <0>       0.1000
19 H19       1.5345     1.8505    -2.0989 H      1 <0>       0.1000
20 H20       3.0874     1.8536    -1.2219 H      1 <0>       0.1000
21 H21       3.8040    -0.1182    -0.0349 H      1 <0>       0.1000
22 H22       2.7795    -1.5781    -0.0330 H      1 <0>       0.1000
@<TRIPOS>BOND
1    1    6 1
2    1    2 1
3    1   11 1
4    1   12 1
5    2    9 1
6    2    3 1
7    3    4 1
8    3   13 1
9    3   14 1
10    4   10 1
11    4    5 1
12    5    6 1
13    5   15 1
14    5   16 1
15    6    7 1
16    7    8 1
17    7   17 1
18    7   18 1
19    8    9 1
20    8   10 1
21    9   19 1
22    9   20 1
23   10   21 1
24   10   22 1
