@<TRIPOS>MOLECULE
ZINC000001633889
47    47    1     0     0
SMALL
USER_CHARGES
@<TRIPOS>ATOM
1      C1      1.2445   -2.1273   -2.8068 C.3      1 ZINC000001633889   -0.1500
2      C2      0.5973   -1.7435   -1.4746 C.3      1 ZINC000001633889   -0.1300
3      C3     -0.8006   -2.3597   -1.3904 C.3      1 ZINC000001633889   -0.1300
4      C4     -1.4477   -1.9759   -0.0582 C.3      1 ZINC000001633889   -0.1200
5      C5     -2.8919   -2.4804   -0.0287 C.3      1 ZINC000001633889   -0.0900
6      H6     -3.4246   -2.1083   -0.9038 H        1 ZINC000001633889    0.0800
7      C7     -3.5821   -1.9771    1.2406 C.3      1 ZINC000001633889   -0.1200
8      C8     -3.7050   -0.4530    1.1842 C.3      1 ZINC000001633889   -0.1500
9      C9     -2.8980   -4.0103   -0.0402 C.3      1 ZINC000001633889    0.0700
10     O10    -4.2444   -4.4806   -0.1301 O.3      1 ZINC000001633889   -0.3500
11     C11    -4.4263   -5.8174   -0.1515 C.2      1 ZINC000001633889    0.5000
12     O12    -3.4665   -6.5627   -0.0951 O.2      1 ZINC000001633889   -0.5200
13     C13    -5.7359   -6.3534   -0.2395 C.2      1 ZINC000001633889   -0.2200
14     C14    -5.9179   -7.6918   -0.2609 C.2      1 ZINC000001633889    0.0200
15     C15    -7.2753   -8.2474   -0.3522 C.ar     1 ZINC000001633889   -0.1300
16     C16    -8.3812   -7.3918   -0.4230 C.ar     1 ZINC000001633889   -0.0500
17     C17    -9.6505   -7.9173   -0.5088 C.ar     1 ZINC000001633889   -0.1600
18     C18    -9.8354   -9.2952   -0.5249 C.ar     1 ZINC000001633889    0.1500
19     O19   -11.0892   -9.8083   -0.6097 O.3      1 ZINC000001633889   -0.3100
20     C20   -11.2079  -11.2323   -0.6214 C.3      1 ZINC000001633889    0.0200
21     C21    -8.7406  -10.1493   -0.4548 C.ar     1 ZINC000001633889   -0.2100
22     C22    -7.4667   -9.6341   -0.3745 C.ar     1 ZINC000001633889   -0.0400
23     H23     2.2404   -1.6883   -2.8667 H        1 ZINC000001633889    0.0500
24     H24     1.3212   -3.2125   -2.8741 H        1 ZINC000001633889    0.0500
25     H25     0.6330   -1.7546   -3.6285 H        1 ZINC000001633889    0.0500
26     H26     1.2088   -2.1163   -0.6528 H        1 ZINC000001633889    0.0600
27     H27     0.5207   -0.6583   -1.4072 H        1 ZINC000001633889    0.0600
28     H28    -1.4120   -1.9870   -2.2121 H        1 ZINC000001633889    0.0600
29     H29    -0.7239   -3.4450   -1.4578 H        1 ZINC000001633889    0.0600
30     H30    -0.8883   -2.4276    0.7610 H        1 ZINC000001633889    0.0700
31     H31    -1.4394   -0.8914    0.0507 H        1 ZINC000001633889    0.0800
32     H32    -4.5757   -2.4193    1.3137 H        1 ZINC000001633889    0.0700
33     H33    -2.9926   -2.2620    2.1121 H        1 ZINC000001633889    0.0600
34     H34    -4.2796   -0.1029    2.0418 H        1 ZINC000001633889    0.0500
35     H35    -2.7106   -0.0072    1.2066 H        1 ZINC000001633889    0.0600
36     H36    -4.2125   -0.1633    0.2641 H        1 ZINC000001633889    0.0500
37     H37    -2.3296   -4.3695   -0.8980 H        1 ZINC000001633889    0.0700
38     H38    -2.4438   -4.3823    0.8782 H        1 ZINC000001633889    0.0700
39     H39    -6.5880   -5.6917   -0.2895 H        1 ZINC000001633889    0.1400
40     H40    -5.0658   -8.3536   -0.2109 H        1 ZINC000001633889    0.1400
41     H41    -8.2386   -6.3214   -0.4099 H        1 ZINC000001633889    0.1400
42     H42   -10.5043   -7.2582   -0.5635 H        1 ZINC000001633889    0.1400
43     H43   -12.2599  -11.5086   -0.6921 H        1 ZINC000001633889    0.1000
44     H44   -10.6681  -11.6349   -1.4785 H        1 ZINC000001633889    0.0600
45     H45   -10.7862  -11.6397    0.2975 H        1 ZINC000001633889    0.0600
46     H46    -8.8897  -11.2189   -0.4672 H        1 ZINC000001633889    0.1300
47     H47    -6.6169  -10.2984   -0.3201 H        1 ZINC000001633889    0.1300
@<TRIPOS>BOND
1     1     2     1
2     1     23    1
3     1     24    1
4     1     25    1
5     2     3     1
6     2     26    1
7     2     27    1
8     3     4     1
9     3     28    1
10    3     29    1
11    4     5     1
12    4     30    1
13    4     31    1
14    5     6     1
15    5     7     1
16    5     9     1
17    7     8     1
18    7     32    1
19    7     33    1
20    8     34    1
21    8     35    1
22    8     36    1
23    9     10    1
24    9     37    1
25    9     38    1
26    10    11    1
27    11    12    2
28    11    13    1
29    13    14    2
30    13    39    1
31    14    15    1
32    14    40    1
33    15    22    ar
34    15    16    ar
35    16    17    ar
36    16    41    1
37    17    18    ar
38    17    42    1
39    18    19    1
40    18    21    ar
41    19    20    1
42    20    43    1
43    20    44    1
44    20    45    1
45    21    22    ar
46    21    46    1
47    22    47    1
@<TRIPOS>SUBSTRUCTURE
1   ZINC000001633889 1     RESIDUE    1   A     ZIN   1
