@<TRIPOS>MOLECULE
ZINC000000001735
30   31    0    0    0
SMALL
USER_CHARGES
NO_NAME
@<TRIPOS>ATOM
1 N1        0.0023     1.3546    -0.4089 N.pl3  1 <0>      -0.8200
2 C2        0.0115    -0.0188    -0.2054 C.ar   1 <0>       0.5000
3 C3       -1.1784    -0.7407    -0.2125 C.ar   1 <0>      -0.3800
4 C4       -1.1205    -2.1153    -0.0041 C.ar   1 <0>       0.5000
5 N5       -2.2814    -2.8758    -0.0032 N.pl3  1 <0>      -0.5900
6 C6       -2.2147    -4.3436    -0.0053 C.3    1 <0>       0.1200
7 C7       -3.0501    -4.8768     1.1629 C.3    1 <0>      -0.1400
8 C8       -4.4693    -4.3119     1.0696 C.3    1 <0>      -0.1200
9 C9       -4.4202    -2.7854     1.1680 C.3    1 <0>      -0.1400
10 C10      -3.6003    -2.2285     0.0061 C.3    1 <0>       0.1200
11 N11       0.0627    -2.6910     0.1939 N.ar   1 <0>      -0.6100
12 C12       1.1756    -1.9720     0.1940 C.ar   1 <0>       0.6500
13 N13       2.3896    -2.6073     0.4037 N.pl3  1 <0>      -0.8000
14 N14       1.1589    -0.6632    -0.0064 N.ar   1 <0>      -0.2900
15 O15       2.3755     0.0613     0.0032 O.3    1 <0>      -0.6100
16 H16       0.8357     1.8509    -0.4067 H      1 <0>       0.4200
17 H17      -0.8372     1.8173    -0.5573 H      1 <0>       0.4200
18 H18      -2.1243    -0.2456    -0.3755 H      1 <0>       0.1600
19 H19      -2.6140    -4.7261    -0.9446 H      1 <0>       0.0700
20 H20      -1.1789    -4.6625     0.1106 H      1 <0>       0.1000
21 H21      -3.0879    -5.9651     1.1162 H      1 <0>       0.0800
22 H22      -2.5969    -4.5681     2.1049 H      1 <0>       0.0700
23 H23      -4.9130    -4.6002     0.1166 H      1 <0>       0.0700
24 H24      -5.0727    -4.7092     1.8858 H      1 <0>       0.0700
25 H25      -5.4331    -2.3853     1.1250 H      1 <0>       0.0800
26 H26      -3.9541    -2.4965     2.1100 H      1 <0>       0.0700
27 H27      -3.4797    -1.1520     0.1269 H      1 <0>       0.0900
28 H28      -4.1102    -2.4379    -0.9343 H      1 <0>       0.0700
29 H29       2.4167    -3.5661     0.5478 H      1 <0>       0.4200
30 H30       3.2120    -2.0930     0.4064 H      1 <0>       0.4300
@<TRIPOS>BOND
1    1    2 1
2    1   16 1
3    1   17 1
4    2   14 ar
5    2    3 ar
6    3    4 ar
7    3   18 1
8    4    5 1
9    4   11 ar
10    5   10 1
11    5    6 1
12    6    7 1
13    6   19 1
14    6   20 1
15    7    8 1
16    7   21 1
17    7   22 1
18    8    9 1
19    8   23 1
20    8   24 1
21    9   10 1
22    9   25 1
23    9   26 1
24   10   27 1
25   10   28 1
26   11   12 ar
27   12   13 1
28   12   14 ar
29   13   29 1
30   13   30 1
31   14   15 1
