@<TRIPOS>MOLECULE
ZINC000018043251
21   22    0    0    0
SMALL
USER_CHARGES
NO_NAME
@<TRIPOS>ATOM
1 C1       -0.0178     1.4608     0.0101 C.3    1 <0>       0.0700
2 N2        0.0021    -0.0041     0.0020 N.am   1 <0>      -0.5200
3 C3       -1.1850    -0.6999     0.0040 C.2    1 <0>       0.2700
4 C4       -1.1558    -2.0893    -0.0037 C.2    1 <0>      -0.1000
5 N5       -2.4397    -2.5212     0.0005 N.2    1 <0>      -0.4100
6 C6       -3.2353    -1.4911     0.0102 C.2    1 <0>       0.2100
7 N7       -2.4965    -0.3438     0.0126 N.pl3  1 <0>      -0.5600
8 C8        0.1473    -2.7563    -0.0136 C.2    1 <0>       0.5900
9 O9        0.2247    -3.9712    -0.0210 O.2    1 <0>      -0.4800
10 N10       1.2617    -1.9933    -0.0149 N.am   1 <0>      -0.5500
11 C11       2.5778    -2.6368    -0.0252 C.3    1 <0>       0.0800
12 C12       1.1801    -0.6523    -0.0127 C.2    1 <0>       0.7200
13 O13       2.2076    -0.0020    -0.0143 O.2    1 <0>      -0.5300
14 H14       1.0048     1.8381     0.0023 H      1 <0>       0.1100
15 H15      -0.5450     1.8219    -0.8730 H      1 <0>       0.0800
16 H16      -0.5280     1.8123     0.9069 H      1 <0>       0.0800
17 H17      -4.3143    -1.5373     0.0155 H      1 <0>       0.2300
18 H18      -2.8444     0.5617     0.0196 H      1 <0>       0.4300
19 H19       2.4527    -3.7196    -0.0308 H      1 <0>       0.1100
20 H20       3.1254    -2.3297    -0.9162 H      1 <0>       0.0800
21 H21       3.1344    -2.3399     0.8637 H      1 <0>       0.0800
@<TRIPOS>BOND
1    1    2 1
2    1   14 1
3    1   15 1
4    1   16 1
5    2   12 am
6    2    3 1
7    3    7 1
8    3    4 2
9    4    5 1
10    4    8 1
11    5    6 2
12    6    7 1
13    6   17 1
14    7   18 1
15    8    9 2
16    8   10 am
17   10   11 1
18   10   12 am
19   11   19 1
20   11   20 1
21   11   21 1
22   12   13 2
