@<TRIPOS>MOLECULE
ZINC000000020250
41    43    1     0     0
SMALL
USER_CHARGES
@<TRIPOS>ATOM
1      C1     -1.2817   -0.6328    0.5782 C.3      1 ZINC000000020250   -0.1800
2      C2      0.0793   -0.0021    0.2766 C.3      1 ZINC000000020250    0.0000
3      H3      0.7227   -0.0907    1.1519 H        1 ZINC000000020250    0.1400
4      C4      0.7256   -0.7254   -0.9067 C.3      1 ZINC000000020250    0.1100
5      N5      1.0039   -2.1152   -0.5366 N.pl3    1 ZINC000000020250   -0.5700
6      C6      2.1844   -2.4173    0.1518 C.ar     1 ZINC000000020250    0.1700
7      C7      3.3622   -1.7563   -0.1583 C.ar     1 ZINC000000020250   -0.1500
8      C8      4.5272   -2.0617    0.5243 C.ar     1 ZINC000000020250   -0.0800
9      C9      4.5245   -3.0238    1.5157 C.ar     1 ZINC000000020250   -0.1200
10     C10     3.3523   -3.6900    1.8339 C.ar     1 ZINC000000020250   -0.0600
11     C11     2.1859   -3.3885    1.1559 C.ar     1 ZINC000000020250   -0.1400
12     S12     0.6790   -4.2205    1.5456 S.3      1 ZINC000000020250    0.0200
13     C13    -0.1691   -4.1695   -0.0014 C.ar     1 ZINC000000020250   -0.1500
14     C14    -1.0710   -5.1600   -0.3429 C.ar     1 ZINC000000020250   -0.0600
15     C15    -1.7280   -5.1015   -1.5611 C.ar     1 ZINC000000020250   -0.1200
16     C16    -1.4830   -4.0564   -2.4308 C.ar     1 ZINC000000020250   -0.0800
17     C17    -0.5803   -3.0624   -2.0942 C.ar     1 ZINC000000020250   -0.1500
18     C18     0.0810   -3.1118   -0.8740 C.ar     1 ZINC000000020250    0.1700
19     N19    -0.1017    1.4171   -0.0565 N.4      1 ZINC000000020250   -0.3800
20     H20    -0.6790    1.4983   -0.8801 H        1 ZINC000000020250    0.4300
21     C21    -0.7521    2.1047    1.0670 C.3      1 ZINC000000020250   -0.0500
22     C22     1.2080    2.0305   -0.3141 C.3      1 ZINC000000020250   -0.0500
23     H23    -1.9251   -0.5443   -0.2971 H        1 ZINC000000020250    0.0800
24     H24    -1.1474   -1.6859    0.8254 H        1 ZINC000000020250    0.1100
25     H25    -1.7421   -0.1176    1.4212 H        1 ZINC000000020250    0.0900
26     H26     0.0469   -0.7054   -1.7594 H        1 ZINC000000020250    0.1000
27     H27     1.6575   -0.2265   -1.1724 H        1 ZINC000000020250    0.1000
28     H28     3.3714   -1.0034   -0.9325 H        1 ZINC000000020250    0.1300
29     H29     5.4436   -1.5450    0.2801 H        1 ZINC000000020250    0.1400
30     H30     5.4376   -3.2571    2.0432 H        1 ZINC000000020250    0.1400
31     H31     3.3498   -4.4424    2.6087 H        1 ZINC000000020250    0.1400
32     H32    -1.2623   -5.9767    0.3374 H        1 ZINC000000020250    0.1400
33     H33    -2.4326   -5.8741   -1.8314 H        1 ZINC000000020250    0.1400
34     H34    -1.9984   -4.0149   -3.3789 H        1 ZINC000000020250    0.1400
35     H35    -0.3936   -2.2480   -2.7786 H        1 ZINC000000020250    0.1300
36     H36    -0.8864    3.1578    0.8198 H        1 ZINC000000020250    0.1300
37     H37    -1.7239    1.6495    1.2581 H        1 ZINC000000020250    0.1300
38     H38    -0.1285    2.0170    1.9567 H        1 ZINC000000020250    0.1200
39     H39     1.6366    1.6046   -1.2213 H        1 ZINC000000020250    0.1200
40     H40     1.0868    3.1064   -0.4399 H        1 ZINC000000020250    0.1300
41     H41     1.8723    1.8357    0.5278 H        1 ZINC000000020250    0.1200
@<TRIPOS>BOND
1     1     2     1
2     1     23    1
3     1     24    1
4     1     25    1
5     2     3     1
6     2     4     1
7     2     19    1
8     4     5     1
9     4     26    1
10    4     27    1
11    5     18    1
12    5     6     1
13    6     11    ar
14    6     7     ar
15    7     8     ar
16    7     28    1
17    8     9     ar
18    8     29    1
19    9     10    ar
20    9     30    1
21    10    11    ar
22    10    31    1
23    11    12    1
24    12    13    1
25    13    18    ar
26    13    14    ar
27    14    15    ar
28    14    32    1
29    15    16    ar
30    15    33    1
31    16    17    ar
32    16    34    1
33    17    18    ar
34    17    35    1
35    19    20    1
36    19    21    1
37    19    22    1
38    21    36    1
39    21    37    1
40    21    38    1
41    22    39    1
42    22    40    1
43    22    41    1
@<TRIPOS>SUBSTRUCTURE
1   ZINC000000020250 1     RESIDUE    1   A     ZIN   1
