@<TRIPOS>MOLECULE
ZINC000002599970
49   50    0    0    0
SMALL
USER_CHARGES
NO_NAME
@<TRIPOS>ATOM
1 C1        0.0019     1.4521    -0.0074 C.3    1 <0>       0.0200
2 O2        0.0163     0.0232    -0.0082 O.3    1 <0>      -0.3100
3 C3       -1.1883    -0.6059     0.0046 C.ar   1 <0>       0.1400
4 C4       -2.3600     0.1368     0.0119 C.ar   1 <0>      -0.2000
5 C5       -3.5832    -0.5052     0.0244 C.ar   1 <0>      -0.1000
6 C6       -3.6403    -1.8866     0.0302 C.ar   1 <0>      -0.1700
7 C7       -4.9760    -2.5843     0.0444 C.3    1 <0>      -0.0900
8 C8       -5.4404    -2.8260    -1.3932 C.3    1 <0>       0.0300
9 H9       -4.6701    -3.3730    -1.9368 H      1 <0>       0.1400
10 C10      -6.7337    -3.6433    -1.3808 C.3    1 <0>      -0.1800
11 N11      -5.6827    -1.5360    -2.0529 N.4    1 <0>      -0.5100
12 H12      -6.4516    -1.0655    -1.5995 H      1 <0>       0.4200
13 H13      -4.8537    -0.9644    -1.9886 H      1 <0>       0.4200
14 C14      -6.0125    -1.7631    -3.4663 C.3    1 <0>      -0.0500
15 C15      -6.2649    -0.4196    -4.1534 C.3    1 <0>       0.1600
16 H16      -5.3694     0.1979    -4.0840 H      1 <0>       0.1100
17 O17      -7.3538     0.2467    -3.5113 O.3    1 <0>      -0.5600
18 C18      -6.6032    -0.6526    -5.6033 C.ar   1 <0>      -0.2800
19 C19      -7.9065    -0.9299    -5.9712 C.ar   1 <0>      -0.0600
20 C20      -8.2231    -1.1446    -7.3001 C.ar   1 <0>      -0.2600
21 C21      -7.2332    -1.0822    -8.2670 C.ar   1 <0>       0.2700
22 O22      -7.5429    -1.2926    -9.5741 O.3    1 <0>      -0.7100
23 C23      -5.9193    -0.8027    -7.8968 C.ar   1 <0>      -0.0200
24 N24      -4.9138    -0.7379    -8.8706 N.am   1 <0>      -0.6400
25 C25      -3.6296    -0.9636    -8.5293 C.2    1 <0>       0.4800
26 O26      -3.3550    -1.3185    -7.4024 O.2    1 <0>      -0.5700
27 C27      -5.6104    -0.5830    -6.5628 C.ar   1 <0>      -0.0600
28 C28      -2.4739    -2.6291     0.0226 C.ar   1 <0>      -0.0600
29 C29      -1.2483    -1.9920     0.0048 C.ar   1 <0>      -0.1400
30 H30       1.0258     1.8258    -0.0184 H      1 <0>       0.1100
31 H31      -0.5252     1.8106    -0.8916 H      1 <0>       0.0600
32 H32      -0.5059     1.8099     0.8882 H      1 <0>       0.0600
33 H33      -2.3160     1.2158     0.0080 H      1 <0>       0.1400
34 H34      -4.4957     0.0726     0.0300 H      1 <0>       0.1300
35 H35      -4.8816    -3.5393     0.5612 H      1 <0>       0.1200
36 H36      -5.7056    -1.9616     0.5621 H      1 <0>       0.0900
37 H37      -7.0646    -3.8155    -2.4049 H      1 <0>       0.0900
38 H38      -6.5539    -4.6005    -0.8912 H      1 <0>       0.1000
39 H39      -7.5040    -3.0963    -0.8372 H      1 <0>       0.0800
40 H40      -5.1819    -2.2713    -3.9561 H      1 <0>       0.1400
41 H41      -6.9081    -2.3806    -3.5357 H      1 <0>       0.1300
42 H42      -8.1854    -0.2464    -3.5346 H      1 <0>       0.3800
43 H43      -8.6796    -0.9793    -5.2187 H      1 <0>       0.0900
44 H44      -9.2423    -1.3613    -7.5842 H      1 <0>       0.1000
45 H45      -5.1419    -0.5306    -9.7903 H      1 <0>       0.4100
46 H46      -2.8451    -0.8283    -9.2591 H      1 <0>       0.1300
47 H47      -4.5931    -0.3658    -6.2726 H      1 <0>       0.1200
48 H48      -2.5211    -3.7080     0.0268 H      1 <0>       0.1400
49 H49      -0.3375    -2.5723    -0.0012 H      1 <0>       0.1400
@<TRIPOS>BOND
1    1    2 1
2    1   30 1
3    1   31 1
4    1   32 1
5    2    3 1
6    3   29 ar
7    3    4 ar
8    4    5 ar
9    4   33 1
10    5    6 ar
11    5   34 1
12    6    7 1
13    6   28 ar
14    7    8 1
15    7   35 1
16    7   36 1
17    8    9 1
18    8   10 1
19    8   11 1
20   10   37 1
21   10   38 1
22   10   39 1
23   11   12 1
24   11   13 1
25   11   14 1
26   14   15 1
27   14   40 1
28   14   41 1
29   15   16 1
30   15   17 1
31   15   18 1
32   17   42 1
33   18   27 ar
34   18   19 ar
35   19   20 ar
36   19   43 1
37   20   21 ar
38   20   44 1
39   21   22 1
40   21   23 ar
41   23   24 1
42   23   27 ar
43   24   25 am
44   24   45 1
45   25   26 2
46   25   46 1
47   27   47 1
48   28   29 ar
49   28   48 1
50   29   49 1
