@<TRIPOS>MOLECULE
ZINC000000896455
39    40    1     0     0
SMALL
USER_CHARGES
@<TRIPOS>ATOM
1      C1     -0.5394    2.0946    0.1313 C.3      1 ZINC000000896455   -0.0500
2      N2     -0.2131    0.6638    0.0675 N.4      1 ZINC000000896455   -0.3900
3      H3      0.3199    0.4773   -0.7687 H        1 ZINC000000896455    0.4300
4      C4      0.5788    0.2891    1.2467 C.3      1 ZINC000000896455   -0.0500
5      C5     -1.4547   -0.1209    0.0420 C.3      1 ZINC000000896455   -0.0100
6      C6     -2.2202    0.1776   -1.2487 C.3      1 ZINC000000896455   -0.1400
7      C7     -3.5134   -0.6397   -1.2753 C.3      1 ZINC000000896455    0.0100
8      H8     -3.2784   -1.6959   -1.1437 H        1 ZINC000000896455    0.1100
9      C9     -4.2065   -0.4403   -2.5985 C.ar     1 ZINC000000896455   -0.0800
10     C10    -4.4972    0.8368   -3.0407 C.ar     1 ZINC000000896455   -0.1100
11     C11    -5.1325    1.0202   -4.2545 C.ar     1 ZINC000000896455   -0.0900
12     C12    -5.4775   -0.0744   -5.0266 C.ar     1 ZINC000000896455   -0.0800
13     Br13   -6.3461    0.1758   -6.6876 Br       1 ZINC000000896455   -0.0400
14     C14    -5.1864   -1.3521   -4.5837 C.ar     1 ZINC000000896455   -0.0900
15     C15    -4.5463   -1.5343   -3.3723 C.ar     1 ZINC000000896455   -0.1000
16     C16    -4.4188   -0.1838   -0.1602 C.ar     1 ZINC000000896455    0.1200
17     C17    -4.4587    1.1541    0.1834 C.ar     1 ZINC000000896455   -0.1800
18     C18    -5.2955    1.5633    1.2106 C.ar     1 ZINC000000896455   -0.0700
19     C19    -6.0640    0.6070    1.8562 C.ar     1 ZINC000000896455   -0.1700
20     C20    -5.9711   -0.7132    1.4575 C.ar     1 ZINC000000896455    0.1100
21     N21    -5.1679   -1.0654    0.4729 N.ar     1 ZINC000000896455   -0.4700
22     H22     0.3819    2.6769    0.1502 H        1 ZINC000000896455    0.1300
23     H23    -1.1270    2.3727   -0.7437 H        1 ZINC000000896455    0.1200
24     H24    -1.1151    2.2961    1.0346 H        1 ZINC000000896455    0.1200
25     H25     0.0031    0.4905    2.1500 H        1 ZINC000000896455    0.1200
26     H26     0.8209   -0.7727    1.1993 H        1 ZINC000000896455    0.1200
27     H27     1.5001    0.8713    1.2656 H        1 ZINC000000896455    0.1300
28     H28    -1.2141   -1.1832    0.0843 H        1 ZINC000000896455    0.1400
29     H29    -2.0712    0.1464    0.9002 H        1 ZINC000000896455    0.1300
30     H30    -2.4608    1.2399   -1.2910 H        1 ZINC000000896455    0.0900
31     H31    -1.6037   -0.0898   -2.1069 H        1 ZINC000000896455    0.1000
32     H32    -4.2282    1.6913   -2.4376 H        1 ZINC000000896455    0.1300
33     H33    -5.3599    2.0179   -4.5997 H        1 ZINC000000896455    0.1400
34     H34    -5.4555   -2.2070   -5.1863 H        1 ZINC000000896455    0.1400
35     H35    -4.3190   -2.5318   -3.0263 H        1 ZINC000000896455    0.1400
36     H36    -3.8456    1.8719   -0.3413 H        1 ZINC000000896455    0.1300
37     H37    -5.3471    2.6023    1.5010 H        1 ZINC000000896455    0.1400
38     H38    -6.7265    0.8900    2.6609 H        1 ZINC000000896455    0.1400
39     H39    -6.5662   -1.4643    1.9556 H        1 ZINC000000896455    0.1600
@<TRIPOS>BOND
1     1     2     1
2     1     22    1
3     1     23    1
4     1     24    1
5     2     3     1
6     2     4     1
7     2     5     1
8     4     25    1
9     4     26    1
10    4     27    1
11    5     6     1
12    5     28    1
13    5     29    1
14    6     7     1
15    6     30    1
16    6     31    1
17    7     8     1
18    7     9     1
19    7     16    1
20    9     15    ar
21    9     10    ar
22    10    11    ar
23    10    32    1
24    11    12    ar
25    11    33    1
26    12    13    1
27    12    14    ar
28    14    15    ar
29    14    34    1
30    15    35    1
31    16    21    ar
32    16    17    ar
33    17    18    ar
34    17    36    1
35    18    19    ar
36    18    37    1
37    19    20    ar
38    19    38    1
39    20    21    ar
40    20    39    1
@<TRIPOS>SUBSTRUCTURE
1   ZINC000000896455 1     RESIDUE    1   A     ZIN   1
