@<TRIPOS>MOLECULE
ZINC000100016058
75    78    1     0     0
SMALL
USER_CHARGES
@<TRIPOS>ATOM
1      C1      0.0208    1.3991   -0.5046 C.3      1 ZINC000100016058   -0.1500
2      C2      0.0058   -0.1274   -0.4024 C.3      1 ZINC000100016058   -0.1300
3      C3      0.6999   -0.7274   -1.6268 C.3      1 ZINC000100016058   -0.1100
4      C4      0.6849   -2.2539   -1.5246 C.3      1 ZINC000100016058    0.1400
5      C5      1.4877   -2.8512   -2.6821 C.3      1 ZINC000100016058   -0.1400
6      C6      0.8622   -2.4228   -4.0110 C.3      1 ZINC000100016058   -0.0800
7      C7      1.5669   -3.1204   -5.1459 C.ar     1 ZINC000100016058   -0.0900
8      C8      2.6718   -2.5364   -5.7366 C.ar     1 ZINC000100016058   -0.1200
9      C9      3.3182   -3.1764   -6.7776 C.ar     1 ZINC000100016058   -0.1200
10     C10     2.8599   -4.4005   -7.2274 C.ar     1 ZINC000100016058   -0.1200
11     C11     1.7556   -4.9849   -6.6361 C.ar     1 ZINC000100016058   -0.1200
12     C12     1.1118   -4.3470   -5.5923 C.ar     1 ZINC000100016058   -0.1200
13     C13     1.3096   -2.6838   -0.1920 C.3      1 ZINC000100016058   -0.2000
14     C14     1.1216   -4.1791   -0.0359 C.2      1 ZINC000100016058    0.3700
15     O15     2.0509   -4.9044    0.2260 O.2      1 ZINC000100016058   -0.4200
16     C16    -0.2801   -4.7293   -0.2211 C.3      1 ZINC000100016058   -0.1800
17     C17    -1.1345   -4.4024    1.0053 C.3      1 ZINC000100016058   -0.0300
18     H18    -1.2194   -3.3209    1.1111 H        1 ZINC000100016058    0.1000
19     C19    -0.4759   -4.9871    2.2563 C.3      1 ZINC000100016058   -0.1200
20     C20    -1.2562   -4.5470    3.4966 C.3      1 ZINC000100016058   -0.1500
21     C21    -2.5075   -4.9997    0.8346 C.ar     1 ZINC000100016058   -0.0700
22     C22    -2.6523   -6.3668    0.6867 C.ar     1 ZINC000100016058   -0.1100
23     C23    -3.9106   -6.9192    0.5302 C.ar     1 ZINC000100016058   -0.0900
24     C24    -5.0268   -6.1064    0.5208 C.ar     1 ZINC000100016058   -0.1500
25     C25    -4.8849   -4.7323    0.6692 C.ar     1 ZINC000100016058    0.1400
26     N26    -6.0119   -3.9073    0.6605 N.am     1 ZINC000100016058   -1.0500
27     S27    -7.3546   -4.3306    1.5325 S.o2     1 ZINC000100016058    2.7000
28     O28    -8.2993   -3.2854    1.3473 O.2      1 ZINC000100016058   -0.9200
29     O29    -7.6266   -5.6890    1.2164 O.2      1 ZINC000100016058   -0.9300
30     C30    -6.9028   -4.2969    3.2352 C.ar     1 ZINC000100016058   -0.4200
31     C31    -6.3990   -5.4374    3.8308 C.ar     1 ZINC000100016058   -0.0800
32     C32    -6.0459   -5.4002    5.1713 C.ar     1 ZINC000100016058   -0.0300
33     C33    -6.2137   -4.2118    5.8651 C.ar     1 ZINC000100016058   -0.1900
34     C34    -5.8443   -4.1207    7.3232 C.3      1 ZINC000100016058    0.5100
35     F35    -4.5075   -3.7257    7.4418 F        1 ZINC000100016058   -0.1700
36     F36    -6.6660   -3.1809    7.9547 F        1 ZINC000100016058   -0.1700
37     F37    -6.0165   -5.3710    7.9269 F        1 ZINC000100016058   -0.1700
38     C38    -6.7238   -3.1113    5.2023 C.ar     1 ZINC000100016058    0.1400
39     N39    -7.0442   -3.1818    3.9251 N.ar     1 ZINC000100016058   -0.3800
40     C40    -3.6203   -4.1815    0.8318 C.ar     1 ZINC000100016058   -0.1200
41     C41    -0.8641   -4.0616   -1.4502 C.2      1 ZINC000100016058    0.5000
42     O42    -1.4685   -4.7000   -2.2790 O.2      1 ZINC000100016058   -0.4200
43     O43    -0.6876   -2.7312   -1.5883 O.3      1 ZINC000100016058   -0.3600
44     H44     1.0518    1.7503   -0.5463 H        1 ZINC000100016058    0.0600
45     H45    -0.5050    1.7080   -1.4081 H        1 ZINC000100016058    0.0600
46     H46    -0.4737    1.8266    0.3676 H        1 ZINC000100016058    0.0600
47     H47     0.5316   -0.4362    0.5010 H        1 ZINC000100016058    0.0700
48     H48    -1.0253   -0.4786   -0.3608 H        1 ZINC000100016058    0.0700
49     H49     0.1741   -0.4185   -2.5303 H        1 ZINC000100016058    0.0900
50     H50     1.7310   -0.3761   -1.6684 H        1 ZINC000100016058    0.0900
51     H51     2.5164   -2.4944   -2.6329 H        1 ZINC000100016058    0.0900
52     H52     1.4763   -3.9387   -2.6090 H        1 ZINC000100016058    0.0700
53     H53    -0.1940   -2.6918   -4.0190 H        1 ZINC000100016058    0.0800
54     H54     0.9632   -1.3439   -4.1291 H        1 ZINC000100016058    0.0800
55     H55     3.0299   -1.5800   -5.3851 H        1 ZINC000100016058    0.1200
56     H56     4.1810   -2.7198   -7.2396 H        1 ZINC000100016058    0.1200
57     H57     3.3645   -4.9001   -8.0412 H        1 ZINC000100016058    0.1200
58     H58     1.3973   -5.9411   -6.9878 H        1 ZINC000100016058    0.1200
59     H59     0.2489   -4.8035   -5.1303 H        1 ZINC000100016058    0.1200
60     H60     2.3732   -2.4455   -0.1914 H        1 ZINC000100016058    0.1200
61     H61     0.8161   -2.1641    0.6293 H        1 ZINC000100016058    0.1300
62     H62    -0.2389   -5.8086   -0.3676 H        1 ZINC000100016058    0.1300
63     H63    -0.4778   -6.0753    2.1931 H        1 ZINC000100016058    0.0800
64     H64     0.5512   -4.6292    2.3273 H        1 ZINC000100016058    0.0700
65     H65    -1.3349   -3.4599    3.5094 H        1 ZINC000100016058    0.0600
66     H66    -2.2547   -4.9833    3.4714 H        1 ZINC000100016058    0.0600
67     H67    -0.7348   -4.8841    4.3925 H        1 ZINC000100016058    0.0600
68     H68    -1.7808   -7.0047    0.6930 H        1 ZINC000100016058    0.1300
69     H69    -4.0202   -7.9874    0.4149 H        1 ZINC000100016058    0.1400
70     H70    -6.0090   -6.5383    0.3979 H        1 ZINC000100016058    0.1600
71     H71    -6.0081   -3.0864    0.1438 H        1 ZINC000100016058    0.4300
72     H72    -6.2820   -6.3465    3.2596 H        1 ZINC000100016058    0.1700
73     H73    -5.6499   -6.2763    5.6633 H        1 ZINC000100016058    0.1600
74     H74    -6.8579   -2.1818    5.7357 H        1 ZINC000100016058    0.1800
75     H75    -3.5065   -3.1137    0.9474 H        1 ZINC000100016058    0.1300
@<TRIPOS>BOND
1     1     2     1
2     1     44    1
3     1     45    1
4     1     46    1
5     2     3     1
6     2     47    1
7     2     48    1
8     3     4     1
9     3     49    1
10    3     50    1
11    4     43    1
12    4     5     1
13    4     13    1
14    5     6     1
15    5     51    1
16    5     52    1
17    6     7     1
18    6     53    1
19    6     54    1
20    7     12    ar
21    7     8     ar
22    8     9     ar
23    8     55    1
24    9     10    ar
25    9     56    1
26    10    11    ar
27    10    57    1
28    11    12    ar
29    11    58    1
30    12    59    1
31    13    14    1
32    13    60    1
33    13    61    1
34    14    15    2
35    14    16    1
36    16    17    1
37    16    41    1
38    16    62    1
39    17    18    1
40    17    19    1
41    17    21    1
42    19    20    1
43    19    63    1
44    19    64    1
45    20    65    1
46    20    66    1
47    20    67    1
48    21    40    ar
49    21    22    ar
50    22    23    ar
51    22    68    1
52    23    24    ar
53    23    69    1
54    24    25    ar
55    24    70    1
56    25    26    1
57    25    40    ar
58    26    27    am
59    26    71    1
60    27    28    2
61    27    29    2
62    27    30    1
63    30    39    ar
64    30    31    ar
65    31    32    ar
66    31    72    1
67    32    33    ar
68    32    73    1
69    33    34    1
70    33    38    ar
71    34    35    1
72    34    36    1
73    34    37    1
74    38    39    ar
75    38    74    1
76    40    75    1
77    41    42    2
78    41    43    1
@<TRIPOS>SUBSTRUCTURE
1   ZINC000100016058 1     RESIDUE    1   A     ZIN   1
