@<TRIPOS>MOLECULE
ZINC000000057522
39    41    1     0     0
SMALL
USER_CHARGES
@<TRIPOS>ATOM
1      C1      2.3770   -1.7553   -1.8404 C.3      1 ZINC000000057522   -0.1200
2      C2      1.2270   -1.5606   -0.8861 C.ar     1 ZINC000000057522   -0.0800
3      C3      0.2080   -0.6814   -1.2030 C.ar     1 ZINC000000057522   -0.1000
4      C4     -0.8491   -0.4998   -0.3299 C.ar     1 ZINC000000057522   -0.1100
5      C5     -0.8900   -1.1966    0.8616 C.ar     1 ZINC000000057522   -0.0700
6      C6      0.1321   -2.0806    1.1829 C.ar     1 ZINC000000057522    0.1200
7      N7      0.0938   -2.7879    2.3891 N.am     1 ZINC000000057522   -0.4900
8      C8     -0.0710   -4.2436    2.3797 C.3      1 ZINC000000057522    0.0600
9      C9      0.2084   -2.1302    3.5599 C.2      1 ZINC000000057522    0.4900
10     S10     0.2811   -0.4199    3.5774 S.2      1 ZINC000000057522   -0.5700
11     O11     0.2658   -2.8191    4.7171 O.3      1 ZINC000000057522   -0.2500
12     C12     0.2554   -2.0953    5.8672 C.ar     1 ZINC000000057522    0.0900
13     C13    -0.9000   -1.3983    6.2334 C.ar     1 ZINC000000057522   -0.1000
14     C14    -0.9412   -0.6657    7.3786 C.ar     1 ZINC000000057522   -0.0900
15     C15     0.1914   -0.6055    8.2087 C.ar     1 ZINC000000057522   -0.0400
16     C16     0.1832    0.1413    9.3991 C.ar     1 ZINC000000057522   -0.1100
17     C17     1.2977    0.1773   10.1795 C.ar     1 ZINC000000057522   -0.1100
18     C18     2.4508   -0.5164    9.8167 C.ar     1 ZINC000000057522   -0.1100
19     C19     2.4959   -1.2501    8.6714 C.ar     1 ZINC000000057522   -0.1000
20     C20     1.3642   -1.3113    7.8395 C.ar     1 ZINC000000057522   -0.0400
21     C21     1.3722   -2.0626    6.6533 C.ar     1 ZINC000000057522   -0.0800
22     C22     1.1893   -2.2648    0.3016 C.ar     1 ZINC000000057522   -0.1000
23     H23     2.1395   -2.5600   -2.5362 H        1 ZINC000000057522    0.0700
24     H24     2.5482   -0.8333   -2.3961 H        1 ZINC000000057522    0.0700
25     H25     3.2751   -2.0134   -1.2793 H        1 ZINC000000057522    0.0700
26     H26     0.2378   -0.1350   -2.1341 H        1 ZINC000000057522    0.1300
27     H27    -1.6434    0.1879   -0.5801 H        1 ZINC000000057522    0.1300
28     H28    -1.7156   -1.0541    1.5431 H        1 ZINC000000057522    0.1300
29     H29     0.9087   -4.7199    2.3422 H        1 ZINC000000057522    0.0800
30     H30    -0.5926   -4.5560    3.2844 H        1 ZINC000000057522    0.0900
31     H31    -0.6518   -4.5378    1.5055 H        1 ZINC000000057522    0.0900
32     H32    -1.7720   -1.4421    5.5977 H        1 ZINC000000057522    0.1300
33     H33    -1.8405   -0.1321    7.6488 H        1 ZINC000000057522    0.1400
34     H34    -0.7029    0.6843    9.6931 H        1 ZINC000000057522    0.1300
35     H35     1.2885    0.7524   11.0936 H        1 ZINC000000057522    0.1300
36     H36     3.3217   -0.4708   10.4538 H        1 ZINC000000057522    0.1300
37     H37     3.3965   -1.7822    8.4027 H        1 ZINC000000057522    0.1300
38     H38     2.2574   -2.6085    6.3622 H        1 ZINC000000057522    0.1400
39     H39     1.9854   -2.9516    0.5483 H        1 ZINC000000057522    0.1300
@<TRIPOS>BOND
1     1     2     1
2     1     23    1
3     1     24    1
4     1     25    1
5     2     22    ar
6     2     3     ar
7     3     4     ar
8     3     26    1
9     4     5     ar
10    4     27    1
11    5     6     ar
12    5     28    1
13    6     7     1
14    6     22    ar
15    7     8     1
16    7     9     am
17    8     29    1
18    8     30    1
19    8     31    1
20    9     10    2
21    9     11    1
22    11    12    1
23    12    21    ar
24    12    13    ar
25    13    14    ar
26    13    32    1
27    14    15    ar
28    14    33    1
29    15    20    ar
30    15    16    ar
31    16    17    ar
32    16    34    1
33    17    18    ar
34    17    35    1
35    18    19    ar
36    18    36    1
37    19    20    ar
38    19    37    1
39    20    21    ar
40    21    38    1
41    22    39    1
@<TRIPOS>SUBSTRUCTURE
1   ZINC000000057522 1     RESIDUE    1   A     ZIN   1
