@<TRIPOS>MOLECULE
ZINC000000901159
12    11    1     0     0
SMALL
USER_CHARGES
@<TRIPOS>ATOM
1      C1     -0.0187    1.5258    0.0104 C.3      1 ZINC000000901159   -0.1900
2      C2      0.0021   -0.0041    0.0020 C.3      1 ZINC000000901159    0.0900
3      C3      0.7421   -0.5109    1.2415 C.3      1 ZINC000000901159   -0.1500
4      O4     -1.3386   -0.4987    0.0122 O.3      1 ZINC000000901159   -0.5700
5      H5      1.0039    1.9031    0.0027 H        1 ZINC000000901159    0.0700
6      H6     -0.5459    1.8868   -0.8726 H        1 ZINC000000901159    0.0600
7      H7     -0.5289    1.8773    0.9072 H        1 ZINC000000901159    0.0600
8      H8      0.5123   -0.3556   -0.8948 H        1 ZINC000000901159    0.0500
9      H9      0.2319   -0.1594    2.1383 H        1 ZINC000000901159    0.0600
10     H10     0.7568   -1.6008    1.2356 H        1 ZINC000000901159    0.0600
11     H11     1.7647   -0.1336    1.2338 H        1 ZINC000000901159    0.0700
12     H12    -1.8677   -0.2163   -0.7464 H        1 ZINC000000901159    0.3800
@<TRIPOS>BOND
1     1     2     1
2     1     5     1
3     1     6     1
4     1     7     1
5     2     3     1
6     2     4     1
7     2     8     1
8     3     9     1
9     3     10    1
10    3     11    1
11    4     12    1
@<TRIPOS>SUBSTRUCTURE
1   ZINC000000901159 1     RESIDUE    1   A     ZIN   1
