@<TRIPOS>MOLECULE
ZINC000003876023
60    63    1     0     0
SMALL
USER_CHARGES
@<TRIPOS>ATOM
1      C1      0.0519   -1.1923    0.0299 C.1      1 ZINC000003876023   -0.1700
2      C2      0.0238   -0.0187    0.0374 C.1      1 ZINC000003876023   -0.2000
3      C3     -0.0113    1.4529    0.0467 C.3      1 ZINC000003876023    0.2500
4      O4     -0.7035    1.9313    1.2301 O.3      1 ZINC000003876023   -0.3400
5      C5     -1.9765    1.5377    1.3924 C.2      1 ZINC000003876023    0.4500
6      C6     -2.7587    1.9944    2.5968 C.3      1 ZINC000003876023   -0.1500
7      O7     -2.4952    0.8172    0.5728 O.2      1 ZINC000003876023   -0.5000
8      C8     -0.7049    1.9813   -1.2336 C.3      1 ZINC000003876023   -0.1300
9      C9      0.3765    2.7662   -2.0253 C.3      1 ZINC000003876023   -0.1200
10     C10     1.6861    2.1493   -1.5215 C.3      1 ZINC000003876023   -0.0800
11     H11     1.8394    1.1670   -1.9684 H        1 ZINC000003876023    0.0800
12     C12     2.9275    3.0058   -1.6918 C.3      1 ZINC000003876023   -0.0700
13     H13     2.7882    3.9610   -1.1855 H        1 ZINC000003876023    0.0900
14     C14     3.1948    3.2436   -3.1797 C.3      1 ZINC000003876023   -0.1100
15     C15     4.4198    4.1478   -3.3413 C.3      1 ZINC000003876023   -0.0900
16     C16     5.5856    3.5078   -2.6067 C.2      1 ZINC000003876023   -0.0900
17     C17     6.7075    3.3548   -3.2474 C.2      1 ZINC000003876023   -0.1800
18     C18     7.9266    2.7313   -2.6308 C.3      1 ZINC000003876023    0.1200
19     H19     7.9477    1.6661   -2.8614 H        1 ZINC000003876023    0.0900
20     O20     9.1189    3.3671   -3.1621 O.3      1 ZINC000003876023   -0.3500
21     C21     9.6547    2.8289   -4.2690 C.2      1 ZINC000003876023    0.4600
22     C22    10.8929    3.4348   -4.8780 C.3      1 ZINC000003876023   -0.1500
23     O23     9.1443    1.8587   -4.7770 O.2      1 ZINC000003876023   -0.5100
24     C24     7.8730    2.9259   -1.1123 C.3      1 ZINC000003876023   -0.1100
25     C25     6.5573    2.3425   -0.5975 C.3      1 ZINC000003876023   -0.1100
26     C26     5.3727    3.0939   -1.1804 C.3      1 ZINC000003876023   -0.0500
27     H27     5.2188    3.9982   -0.5916 H        1 ZINC000003876023    0.0800
28     C28     4.1027    2.2474   -1.0556 C.3      1 ZINC000003876023   -0.0700
29     H29     4.2410    1.3120   -1.5979 H        1 ZINC000003876023    0.0700
30     C30     3.8447    1.9404    0.4165 C.3      1 ZINC000003876023   -0.1100
31     C31     2.5133    1.1994    0.6174 C.3      1 ZINC000003876023   -0.1000
32     C32     1.4055    2.0157   -0.0005 C.3      1 ZINC000003876023   -0.0500
33     C33     1.4251    3.4341    0.5726 C.3      1 ZINC000003876023   -0.1500
34     H34     0.0769   -2.2420    0.0233 H        1 ZINC000003876023    0.2200
35     H35    -2.1298    2.6323    3.2179 H        1 ZINC000003876023    0.0900
36     H36    -3.6345    2.5550    2.2700 H        1 ZINC000003876023    0.1100
37     H37    -3.0774    1.1262    3.1736 H        1 ZINC000003876023    0.1000
38     H38    -1.0739    1.1473   -1.8306 H        1 ZINC000003876023    0.0800
39     H39    -1.5280    2.6442   -0.9668 H        1 ZINC000003876023    0.0800
40     H40     0.2620    2.6059   -3.0973 H        1 ZINC000003876023    0.0700
41     H41     0.3339    3.8289   -1.7865 H        1 ZINC000003876023    0.0800
42     H42     3.3804    2.2892   -3.6724 H        1 ZINC000003876023    0.0600
43     H43     2.3270    3.7232   -3.6325 H        1 ZINC000003876023    0.0700
44     H44     4.6636    4.2506   -4.3987 H        1 ZINC000003876023    0.0700
45     H45     4.2109    5.1290   -2.9149 H        1 ZINC000003876023    0.0800
46     H46     6.7649    3.6926   -4.2716 H        1 ZINC000003876023    0.1100
47     H47    11.7055    3.4075   -4.1520 H        1 ZINC000003876023    0.1000
48     H48    11.1776    2.8666   -5.7635 H        1 ZINC000003876023    0.1000
49     H49    10.6911    4.4685   -5.1589 H        1 ZINC000003876023    0.1000
50     H50     8.7114    2.4084   -0.6460 H        1 ZINC000003876023    0.0800
51     H51     7.9203    3.9891   -0.8766 H        1 ZINC000003876023    0.0800
52     H52     6.4934    1.2928   -0.8843 H        1 ZINC000003876023    0.0700
53     H53     6.5314    2.4193    0.4895 H        1 ZINC000003876023    0.0800
54     H54     4.6570    1.3219    0.7983 H        1 ZINC000003876023    0.0700
55     H55     3.8188    2.8758    0.9755 H        1 ZINC000003876023    0.0700
56     H56     2.5406    0.2401    0.1005 H        1 ZINC000003876023    0.0600
57     H57     2.3318    1.0440    1.6809 H        1 ZINC000003876023    0.0700
58     H58     2.4217    3.8597    0.4551 H        1 ZINC000003876023    0.0700
59     H59     0.7014    4.0512    0.0402 H        1 ZINC000003876023    0.0600
60     H60     1.1663    3.4019    1.6310 H        1 ZINC000003876023    0.0600
@<TRIPOS>BOND
1     1     2     3
2     1     34    1
3     2     3     1
4     3     32    1
5     3     4     1
6     3     8     1
7     4     5     1
8     5     6     1
9     5     7     2
10    6     35    1
11    6     36    1
12    6     37    1
13    8     9     1
14    8     38    1
15    8     39    1
16    9     10    1
17    9     40    1
18    9     41    1
19    10    11    1
20    10    32    1
21    10    12    1
22    12    13    1
23    12    28    1
24    12    14    1
25    14    15    1
26    14    42    1
27    14    43    1
28    15    16    1
29    15    44    1
30    15    45    1
31    16    26    1
32    16    17    2
33    17    18    1
34    17    46    1
35    18    19    1
36    18    20    1
37    18    24    1
38    20    21    1
39    21    22    1
40    21    23    2
41    22    47    1
42    22    48    1
43    22    49    1
44    24    25    1
45    24    50    1
46    24    51    1
47    25    26    1
48    25    52    1
49    25    53    1
50    26    27    1
51    26    28    1
52    28    29    1
53    28    30    1
54    30    31    1
55    30    54    1
56    30    55    1
57    31    32    1
58    31    56    1
59    31    57    1
60    32    33    1
61    33    58    1
62    33    59    1
63    33    60    1
@<TRIPOS>SUBSTRUCTURE
1   ZINC000003876023 1     RESIDUE    1   A     ZIN   1
