@<TRIPOS>MOLECULE
ZINC000000643114
40    42    1     0     0
SMALL
USER_CHARGES
@<TRIPOS>ATOM
1      C1     -0.0187    1.5258    0.0104 C.3      1 ZINC000000643114   -0.1700
2      C2      0.0021   -0.0041    0.0020 C.3      1 ZINC000000643114    0.1600
3      H3      0.5208   -0.3697   -0.8842 H        1 ZINC000000643114    0.0800
4      C4     -1.4318   -0.5572    0.0470 C.3      1 ZINC000000643114   -0.0800
5      C5     -1.4886   -1.3609    1.3267 C.ar     1 ZINC000000643114   -0.1600
6      C6     -2.5171   -2.0859    1.8963 C.ar     1 ZINC000000643114   -0.0600
7      C7     -2.3202   -2.7469    3.0948 C.ar     1 ZINC000000643114   -0.1600
8      C8     -1.0903   -2.6804    3.7229 C.ar     1 ZINC000000643114   -0.0800
9      C9     -0.0606   -1.9580    3.1583 C.ar     1 ZINC000000643114   -0.1600
10     C10    -0.2516   -1.2877    1.9484 C.ar     1 ZINC000000643114    0.2000
11     N11     0.6495   -0.5104    1.2152 N.pl3    1 ZINC000000643114   -0.4300
12     N12     1.9759   -0.2542    1.5865 N.am     1 ZINC000000643114   -0.5000
13     C13     2.9108   -1.2157    1.4528 C.2      1 ZINC000000643114    0.5600
14     O14     2.6032   -2.3052    1.0100 O.2      1 ZINC000000643114   -0.5000
15     C15     4.3099   -0.9455    1.8446 C.ar     1 ZINC000000643114   -0.1400
16     C16     4.6650    0.3028    2.3588 C.ar     1 ZINC000000643114   -0.0200
17     C17     5.9723    0.5491    2.7226 C.ar     1 ZINC000000643114   -0.1300
18     C18     6.9320   -0.4389    2.5783 C.ar     1 ZINC000000643114    0.0700
19     Cl19    8.5757   -0.1212    3.0379 Cl       1 ZINC000000643114   -0.0200
20     C20     6.5856   -1.6798    2.0690 C.ar     1 ZINC000000643114   -0.6800
21     S21     7.8135   -2.9306    1.8896 S.o2     1 ZINC000000643114    2.7000
22     N22     8.8972   -2.3950    0.7578 N.am     1 ZINC000000643114   -1.2500
23     O23     8.5157   -2.9835    3.1239 O.2      1 ZINC000000643114   -0.9400
24     O24     7.1599   -4.0556    1.3185 O.2      1 ZINC000000643114   -0.9500
25     C25     5.2808   -1.9397    1.7072 C.ar     1 ZINC000000643114    0.0600
26     H26     1.0039    1.9031    0.0027 H        1 ZINC000000643114    0.0600
27     H27    -0.5459    1.8868   -0.8726 H        1 ZINC000000643114    0.0800
28     H28    -0.5289    1.8773    0.9072 H        1 ZINC000000643114    0.0700
29     H29    -2.1535    0.2590    0.0782 H        1 ZINC000000643114    0.0900
30     H30    -1.6190   -1.1990   -0.8138 H        1 ZINC000000643114    0.0900
31     H31    -3.4772   -2.1369    1.4044 H        1 ZINC000000643114    0.1200
32     H32    -3.1249   -3.3140    3.5388 H        1 ZINC000000643114    0.1300
33     H33    -0.9356   -3.1963    4.6590 H        1 ZINC000000643114    0.1200
34     H34     0.8976   -1.9101    3.6542 H        1 ZINC000000643114    0.1100
35     H35     2.2213    0.6152    1.9399 H        1 ZINC000000643114    0.4100
36     H36     3.9176    1.0743    2.4711 H        1 ZINC000000643114    0.1500
37     H37     6.2483    1.5145    3.1205 H        1 ZINC000000643114    0.1600
38     H38     8.7720   -1.5296    0.3379 H        1 ZINC000000643114    0.4200
39     H39     9.6571   -2.9466    0.5147 H        1 ZINC000000643114    0.4300
40     H40     5.0118   -2.9074    1.3103 H        1 ZINC000000643114    0.1700
@<TRIPOS>BOND
1     1     2     1
2     1     26    1
3     1     27    1
4     1     28    1
5     2     3     1
6     2     11    1
7     2     4     1
8     4     5     1
9     4     29    1
10    4     30    1
11    5     10    ar
12    5     6     ar
13    6     7     ar
14    6     31    1
15    7     8     ar
16    7     32    1
17    8     9     ar
18    8     33    1
19    9     10    ar
20    9     34    1
21    10    11    1
22    11    12    1
23    12    13    am
24    12    35    1
25    13    14    2
26    13    15    1
27    15    25    ar
28    15    16    ar
29    16    17    ar
30    16    36    1
31    17    18    ar
32    17    37    1
33    18    19    1
34    18    20    ar
35    20    21    1
36    20    25    ar
37    21    22    am
38    21    23    2
39    21    24    2
40    22    38    1
41    22    39    1
42    25    40    1
@<TRIPOS>SUBSTRUCTURE
1   ZINC000000643114 1     RESIDUE    1   A     ZIN   1
