@<TRIPOS>MOLECULE
ZINC000003843378
18   17    0    0    0
SMALL
USER_CHARGES
NO_NAME
@<TRIPOS>ATOM
1 C1       -0.0176     1.4478     0.0100 C.3    1 <0>       0.0400
2 O2        0.0021    -0.0041     0.0020 O.3    1 <0>      -0.3500
3 C3       -1.1901    -0.6321     0.0100 C.2    1 <0>       0.4900
4 O4       -2.2175     0.0154     0.0233 O.2    1 <0>      -0.4900
5 C5       -1.2473    -2.1067     0.0027 C.2    1 <0>      -0.0900
6 C6       -2.4356    -2.7326     0.0106 C.2    1 <0>      -0.0900
7 C7       -2.4928    -4.2071     0.0033 C.2    1 <0>       0.4900
8 O8       -1.4654    -4.8547    -0.0100 O.2    1 <0>      -0.4900
9 O9       -3.6850    -4.8352     0.0113 O.3    1 <0>      -0.3500
10 C10      -3.6653    -6.2870     0.0033 C.3    1 <0>       0.0400
11 H11       1.0050     1.8251     0.0023 H      1 <0>       0.1100
12 H12      -0.5448     1.8089    -0.8731 H      1 <0>       0.0700
13 H13      -0.5278     1.7993     0.9068 H      1 <0>       0.0700
14 H14      -0.3337    -2.6825    -0.0092 H      1 <0>       0.1600
15 H15      -3.3492    -2.1568     0.0225 H      1 <0>       0.1600
16 H16      -3.1551    -6.6385    -0.8935 H      1 <0>       0.0700
17 H17      -3.1381    -6.6481     0.8864 H      1 <0>       0.0700
18 H18      -4.6879    -6.6643     0.0110 H      1 <0>       0.1100
@<TRIPOS>BOND
1    1    2 1
2    1   11 1
3    1   12 1
4    1   13 1
5    2    3 1
6    3    4 2
7    3    5 1
8    5    6 2
9    5   14 1
10    6    7 1
11    6   15 1
12    7    8 2
13    7    9 1
14    9   10 1
15   10   16 1
16   10   17 1
17   10   18 1
