@<TRIPOS>MOLECULE
ZINC000003972949
47    49    1     0     0
SMALL
USER_CHARGES
@<TRIPOS>ATOM
1      C1      1.5669   -0.9384    1.7262 C.3      1 ZINC000003972949    0.0200
2      O2      0.8147   -1.8806    0.9171 O.3      1 ZINC000003972949   -0.3400
3      C3      1.5165   -2.8236    0.2692 C.2      1 ZINC000003972949    0.4700
4      O4      2.7196   -2.8607    0.3747 O.2      1 ZINC000003972949   -0.4900
5      C5      0.8039   -3.8363   -0.5897 C.3      1 ZINC000003972949   -0.1000
6      H6      0.8580   -4.8175   -0.1182 H        1 ZINC000003972949    0.1600
7      C7      1.4670   -3.8937   -1.9753 C.3      1 ZINC000003972949    0.0500
8      H8      2.4733   -4.3104   -1.9319 H        1 ZINC000003972949    0.1600
9      C9      0.5390   -4.7028   -2.9104 C.3      1 ZINC000003972949   -0.1400
10     C10    -0.4259   -3.6586   -3.5096 C.3      1 ZINC000003972949   -0.1400
11     C11     0.0069   -2.3134   -2.8823 C.3      1 ZINC000003972949    0.0300
12     H12    -0.1373   -1.4753   -3.5642 H        1 ZINC000003972949    0.1600
13     C13    -0.7738   -2.1336   -1.5706 C.3      1 ZINC000003972949   -0.1500
14     C14    -0.6624   -3.4271   -0.7556 C.3      1 ZINC000003972949   -0.0500
15     H15    -1.1777   -4.2316   -1.2802 H        1 ZINC000003972949    0.1200
16     C16    -1.2960   -3.2237    0.5965 C.ar     1 ZINC000003972949   -0.0700
17     C17    -1.8702   -2.0072    0.9147 C.ar     1 ZINC000003972949   -0.0900
18     C18    -2.4515   -1.8204    2.1548 C.ar     1 ZINC000003972949   -0.0800
19     C19    -2.4585   -2.8507    3.0773 C.ar     1 ZINC000003972949   -0.0900
20     I20    -3.3399   -2.5683    4.9567 I        1 ZINC000003972949   -0.0300
21     C21    -1.8839   -4.0676    2.7587 C.ar     1 ZINC000003972949   -0.0800
22     C22    -1.3078   -4.2556    1.5164 C.ar     1 ZINC000003972949   -0.1100
23     N23     1.4529   -2.5132   -2.5282 N.4      1 ZINC000003972949   -0.3900
24     H24     2.0322   -2.4522   -3.3521 H        1 ZINC000003972949    0.4300
25     C25     1.8796   -1.5313   -1.5224 C.3      1 ZINC000003972949   -0.1000
26     C26     2.1065   -0.1766   -2.1964 C.3      1 ZINC000003972949   -0.1800
27     C27     2.5509    0.8462   -1.1489 C.3      1 ZINC000003972949    0.0700
28     F28     2.7585    2.0848   -1.7652 F        1 ZINC000003972949   -0.2000
29     H29     2.1141   -1.4787    2.4987 H        1 ZINC000003972949    0.0800
30     H30     2.2706   -0.3971    1.0938 H        1 ZINC000003972949    0.0700
31     H31     0.8808   -0.2320    2.1936 H        1 ZINC000003972949    0.1200
32     H32     1.1191   -5.1804   -3.7000 H        1 ZINC000003972949    0.1100
33     H33    -0.0155   -5.4492   -2.3415 H        1 ZINC000003972949    0.1200
34     H34    -0.3203   -3.6229   -4.5939 H        1 ZINC000003972949    0.1100
35     H35    -1.4548   -3.8914   -3.2353 H        1 ZINC000003972949    0.1200
36     H36    -0.3378   -1.3169   -0.9952 H        1 ZINC000003972949    0.1000
37     H37    -1.8166   -1.9089   -1.7942 H        1 ZINC000003972949    0.1300
38     H38    -1.8644   -1.2025    0.1944 H        1 ZINC000003972949    0.1300
39     H39    -2.8998   -0.8698    2.4035 H        1 ZINC000003972949    0.1300
40     H40    -1.8889   -4.8723    3.4790 H        1 ZINC000003972949    0.1300
41     H41    -0.8591   -5.2060    1.2675 H        1 ZINC000003972949    0.1300
42     H42     1.1068   -1.4328   -0.7600 H        1 ZINC000003972949    0.1700
43     H43     2.8072   -1.8661   -1.0583 H        1 ZINC000003972949    0.1700
44     H44     2.8793   -0.2751   -2.9588 H        1 ZINC000003972949    0.1000
45     H45     1.1789    0.1583   -2.6605 H        1 ZINC000003972949    0.1000
46     H46     1.7782    0.9446   -0.3865 H        1 ZINC000003972949    0.0800
47     H47     3.4786    0.5113   -0.6848 H        1 ZINC000003972949    0.0900
@<TRIPOS>BOND
1     1     2     1
2     1     29    1
3     1     30    1
4     1     31    1
5     2     3     1
6     3     4     2
7     3     5     1
8     5     6     1
9     5     14    1
10    5     7     1
11    7     8     1
12    7     23    1
13    7     9     1
14    9     10    1
15    9     32    1
16    9     33    1
17    10    11    1
18    10    34    1
19    10    35    1
20    11    12    1
21    11    13    1
22    11    23    1
23    13    14    1
24    13    36    1
25    13    37    1
26    14    15    1
27    14    16    1
28    16    22    ar
29    16    17    ar
30    17    18    ar
31    17    38    1
32    18    19    ar
33    18    39    1
34    19    20    1
35    19    21    ar
36    21    22    ar
37    21    40    1
38    22    41    1
39    23    24    1
40    23    25    1
41    25    26    1
42    25    42    1
43    25    43    1
44    26    27    1
45    26    44    1
46    26    45    1
47    27    28    1
48    27    46    1
49    27    47    1
@<TRIPOS>SUBSTRUCTURE
1   ZINC000003972949 1     RESIDUE    1   A     ZIN   1
