@<TRIPOS>MOLECULE
ZINC000003938751
65    69    1     0     0
SMALL
USER_CHARGES
@<TRIPOS>ATOM
1      C1      0.3207    2.1001   -0.1436 C.3      1 ZINC000003938751   -0.1500
2      C2      0.2091    0.5742   -0.1515 C.3      1 ZINC000003938751   -0.1200
3      C3      0.9024    0.0186   -1.3971 C.3      1 ZINC000003938751   -0.1100
4      C4      0.7909   -1.5073   -1.4050 C.3      1 ZINC000003938751    0.2200
5      H5     -0.2518   -1.8119   -1.3142 H        1 ZINC000003938751    0.0700
6      O6      1.5758   -2.0748   -0.3355 O.3      1 ZINC000003938751   -0.3600
7      C7      1.8288   -3.4361   -0.7394 C.3      1 ZINC000003938751    0.0600
8      H8      1.1560   -4.1446   -0.2561 H        1 ZINC000003938751    0.1000
9      C9      3.3226   -3.7504   -0.4531 C.3      1 ZINC000003938751   -0.1100
10     C10     4.0256   -3.2972   -1.7370 C.3      1 ZINC000003938751   -0.0800
11     H11     4.0935   -2.2098   -1.7688 H        1 ZINC000003938751    0.0800
12     C12     5.3862   -3.9185   -1.9974 C.3      1 ZINC000003938751   -0.0800
13     H13     5.2948   -5.0042   -2.0293 H        1 ZINC000003938751    0.1000
14     C14     6.3613   -3.5150   -0.8896 C.3      1 ZINC000003938751   -0.1100
15     C15     7.7228   -4.1731   -1.1353 C.3      1 ZINC000003938751   -0.0900
16     C16     8.1843   -3.7952   -2.5303 C.2      1 ZINC000003938751   -0.0200
17     C17     9.3961   -3.2816   -2.6893 C.2      1 ZINC000003938751   -0.2300
18     C18     9.8705   -2.8834   -4.0237 C.2      1 ZINC000003938751    0.4100
19     O19    10.9956   -2.4468   -4.1795 O.2      1 ZINC000003938751   -0.4600
20     C20     8.9526   -3.0248   -5.1666 C.2      1 ZINC000003938751   -0.2200
21     C21     7.7497   -3.5469   -4.9855 C.2      1 ZINC000003938751   -0.0600
22     C22     7.2375   -4.0263   -3.6708 C.3      1 ZINC000003938751   -0.0100
23     C23     6.9989   -5.5335   -3.7821 C.3      1 ZINC000003938751   -0.1300
24     C24     5.8766   -3.3990   -3.3581 C.3      1 ZINC000003938751   -0.0500
25     H25     5.9870   -2.3164   -3.2946 H        1 ZINC000003938751    0.0800
26     C26     4.8951   -3.7388   -4.4757 C.3      1 ZINC000003938751    0.1100
27     H27     5.2358   -3.2752   -5.4015 H        1 ZINC000003938751    0.0600
28     O28     4.8597   -5.1567   -4.6501 O.3      1 ZINC000003938751   -0.5400
29     C29     3.4774   -3.2387   -4.1564 C.3      1 ZINC000003938751   -0.1300
30     C30     3.0497   -3.8117   -2.8286 C.3      1 ZINC000003938751   -0.0400
31     C31     3.1825   -5.3357   -2.8552 C.3      1 ZINC000003938751   -0.1500
32     C32     1.6650   -3.4217   -2.2882 C.3      1 ZINC000003938751    0.0500
33     C33     0.6010   -4.3988   -2.7174 C.2      1 ZINC000003938751    0.3500
34     O34     0.8674   -5.5714   -2.8286 O.2      1 ZINC000003938751   -0.3900
35     C35    -0.7955   -3.9126   -3.0080 C.3      1 ZINC000003938751    0.0300
36     O36    -1.6145   -5.0185   -3.3930 O.3      1 ZINC000003938751   -0.5500
37     O37     1.3703   -2.0483   -2.6117 O.3      1 ZINC000003938751   -0.3500
38     H38     1.3720    2.3875   -0.1328 H        1 ZINC000003938751    0.0600
39     H39    -0.1573    2.5040   -1.0361 H        1 ZINC000003938751    0.0600
40     H40    -0.1733    2.4959    0.7438 H        1 ZINC000003938751    0.0600
41     H41     0.6870    0.1703    0.7410 H        1 ZINC000003938751    0.0700
42     H42    -0.8423    0.2868   -0.1622 H        1 ZINC000003938751    0.0600
43     H43     0.4245    0.4225   -2.2896 H        1 ZINC000003938751    0.0900
44     H44     1.9538    0.3060   -1.3863 H        1 ZINC000003938751    0.0800
45     H45     3.6791   -3.1785    0.4036 H        1 ZINC000003938751    0.0900
46     H46     3.4672   -4.8186   -0.2914 H        1 ZINC000003938751    0.0900
47     H47     6.4777   -2.4313   -0.8860 H        1 ZINC000003938751    0.0700
48     H48     5.9699   -3.8403    0.0743 H        1 ZINC000003938751    0.0800
49     H49     8.4429   -3.8147   -0.3996 H        1 ZINC000003938751    0.0800
50     H50     7.6270   -5.2563   -1.0601 H        1 ZINC000003938751    0.0900
51     H51    10.0403   -3.1541   -1.8320 H        1 ZINC000003938751    0.1400
52     H52     9.2601   -2.7028   -6.1506 H        1 ZINC000003938751    0.1400
53     H53     7.0991   -3.6300   -5.8435 H        1 ZINC000003938751    0.1300
54     H54     7.9407   -6.0622   -3.6353 H        1 ZINC000003938751    0.0400
55     H55     6.2845   -5.8454   -3.0202 H        1 ZINC000003938751    0.0800
56     H56     6.6015   -5.7664   -4.7699 H        1 ZINC000003938751    0.1000
57     H57     4.2563   -5.4525   -5.3454 H        1 ZINC000003938751    0.3700
58     H58     3.4793   -2.1527   -4.0627 H        1 ZINC000003938751    0.0800
59     H59     2.7900   -3.5429   -4.9457 H        1 ZINC000003938751    0.0700
60     H60     4.2360   -5.6076   -2.9214 H        1 ZINC000003938751    0.1000
61     H61     2.7560   -5.7536   -1.9433 H        1 ZINC000003938751    0.0500
62     H62     2.6500   -5.7317   -3.7200 H        1 ZINC000003938751    0.0600
63     H63    -1.2111   -3.4463   -2.1147 H        1 ZINC000003938751    0.0800
64     H64    -0.7653   -3.1836   -3.8178 H        1 ZINC000003938751    0.0900
65     H65    -2.5292   -4.7789   -3.5954 H        1 ZINC000003938751    0.3900
@<TRIPOS>BOND
1     1     2     1
2     1     38    1
3     1     39    1
4     1     40    1
5     2     3     1
6     2     41    1
7     2     42    1
8     3     4     1
9     3     43    1
10    3     44    1
11    4     5     1
12    4     37    1
13    4     6     1
14    6     7     1
15    7     8     1
16    7     32    1
17    7     9     1
18    9     10    1
19    9     45    1
20    9     46    1
21    10    11    1
22    10    30    1
23    10    12    1
24    12    13    1
25    12    24    1
26    12    14    1
27    14    15    1
28    14    47    1
29    14    48    1
30    15    16    1
31    15    49    1
32    15    50    1
33    16    22    1
34    16    17    2
35    17    18    1
36    17    51    1
37    18    19    2
38    18    20    1
39    20    21    2
40    20    52    1
41    21    22    1
42    21    53    1
43    22    23    1
44    22    24    1
45    23    54    1
46    23    55    1
47    23    56    1
48    24    25    1
49    24    26    1
50    26    27    1
51    26    28    1
52    26    29    1
53    28    57    1
54    29    30    1
55    29    58    1
56    29    59    1
57    30    31    1
58    30    32    1
59    31    60    1
60    31    61    1
61    31    62    1
62    32    33    1
63    32    37    1
64    33    34    2
65    33    35    1
66    35    36    1
67    35    63    1
68    35    64    1
69    36    65    1
@<TRIPOS>SUBSTRUCTURE
1   ZINC000003938751 1     RESIDUE    1   A     ZIN   1
