@<TRIPOS>MOLECULE
ZINC000003803652
22    22    1     0     0
SMALL
USER_CHARGES
@<TRIPOS>ATOM
1      O1      0.0021   -0.0041    0.0020 O.co2    1 ZINC000003803652   -1.1700
2      P2     -0.0192    1.5624    0.0106 P.3      1 ZINC000003803652    2.2200
3      O3      1.4506    2.1047   -0.0005 O.co2    1 ZINC000003803652   -1.1700
4      O4     -0.7769    2.0814   -1.2586 O.co2    1 ZINC000003803652   -1.2200
5      C5     -0.8725    2.1503    1.5105 C.3      1 ZINC000003803652   -1.0400
6      O6     -0.8918    3.5792    1.5184 O.3      1 ZINC000003803652   -0.5100
7      C7     -2.3078    1.6208    1.5214 C.3      1 ZINC000003803652    0.1200
8      N8     -2.9935    2.0932    2.7267 N.pl3    1 ZINC000003803652   -0.4200
9      C9     -3.0337    1.4597    3.9394 C.2      1 ZINC000003803652    0.1200
10     C10    -3.7662    2.2361    4.7605 C.2      1 ZINC000003803652   -0.1300
11     N11    -4.1625    3.3142    4.0681 N.2      1 ZINC000003803652   -0.5300
12     C12    -3.6992    3.2379    2.8505 C.2      1 ZINC000003803652    0.1300
13     P13     0.0093    1.5464    2.9874 P.3      1 ZINC000003803652    2.2500
14     O14     0.1422   -0.0129    2.9150 O.co2    1 ZINC000003803652   -1.1800
15     O15     1.4364    2.1902    3.0432 O.co2    1 ZINC000003803652   -1.1800
16     O16    -0.7932    1.9430    4.2732 O.co2    1 ZINC000003803652   -1.1700
17     H17    -1.3461    3.9706    0.7597 H        1 ZINC000003803652    0.3000
18     H18    -2.8350    1.9818    0.6383 H        1 ZINC000003803652    0.0500
19     H19    -2.2931    0.5309    1.5154 H        1 ZINC000003803652    0.0800
20     H20    -2.5677    0.5180    4.1895 H        1 ZINC000003803652    0.1600
21     H21    -3.9944    2.0271    5.7953 H        1 ZINC000003803652    0.1300
22     H22    -3.8593    3.9663    2.0693 H        1 ZINC000003803652    0.1600
@<TRIPOS>BOND
1     1     2     ar
2     2     3     ar
3     2     4     ar
4     2     5     1
5     5     6     1
6     5     7     1
7     5     13    1
8     6     17    1
9     7     8     1
10    7     18    1
11    7     19    1
12    8     12    1
13    8     9     1
14    9     10    2
15    9     20    1
16    10    11    1
17    10    21    1
18    11    12    2
19    12    22    1
20    13    14    ar
21    13    15    ar
22    13    16    ar
@<TRIPOS>SUBSTRUCTURE
1   ZINC000003803652 1     RESIDUE    1   A     ZIN   1
