@<TRIPOS>MOLECULE
ZINC000000601316
52   55    0    0    0
SMALL
USER_CHARGES
NO_NAME
@<TRIPOS>ATOM
1 C1        0.0876     1.8970    -2.2152 C.3    1 <0>      -0.0500
2 N2        0.2211     0.4512    -1.9921 N.4    1 <0>      -0.2600
3 C3        0.5351    -0.1883    -3.2720 C.3    1 <0>      -0.0100
4 C4        0.6757    -1.7002    -3.0819 C.3    1 <0>      -0.1400
5 C5        0.4389    -2.0373    -1.6039 C.3    1 <0>      -0.1000
6 C6        1.4659    -1.2691    -0.7617 C.3    1 <0>      -0.1400
7 C7        1.2998     0.2290    -1.0263 C.3    1 <0>      -0.0100
8 C8       -0.9644    -1.5527    -1.2163 C.3    1 <0>       0.0700
9 H9       -1.1438    -1.7593    -0.1612 H      1 <0>       0.1200
10 O10      -1.9568    -2.2409    -2.0224 O.3    1 <0>      -0.3300
11 C11      -3.1622    -2.4398    -1.4663 C.2    1 <0>       0.4500
12 O12      -3.3809    -2.0516    -0.3432 O.2    1 <0>      -0.4700
13 C13      -4.2428    -3.1471    -2.2429 C.3    1 <0>       0.2500
14 O14      -4.1385    -2.8031    -3.6259 O.3    1 <0>      -0.5200
15 C15      -4.0833    -4.6371    -2.0825 C.ar   1 <0>      -0.0900
16 C16      -3.7391    -5.1669    -0.8530 C.ar   1 <0>      -0.1200
17 C17      -3.5928    -6.5336    -0.7059 C.ar   1 <0>      -0.1100
18 C18      -3.7911    -7.3705    -1.7881 C.ar   1 <0>      -0.1000
19 C19      -4.1362    -6.8406    -3.0174 C.ar   1 <0>      -0.1200
20 C20      -4.2867    -5.4743    -3.1635 C.ar   1 <0>      -0.0800
21 C21      -5.5929    -2.7274    -1.7213 C.ar   1 <0>      -0.1300
22 C22      -6.4554    -2.0130    -2.5316 C.ar   1 <0>      -0.1000
23 C23      -7.6938    -1.6280    -2.0532 C.ar   1 <0>      -0.1200
24 C24      -8.0700    -1.9578    -0.7646 C.ar   1 <0>      -0.1000
25 C25      -7.2079    -2.6730     0.0455 C.ar   1 <0>      -0.1200
26 C26      -5.9712    -3.0617    -0.4344 C.ar   1 <0>      -0.0800
27 C27      -1.0502    -0.0567    -1.4711 C.3    1 <0>      -0.0200
28 H28       1.0250     2.2924    -2.6064 H      1 <0>       0.1300
29 H29      -0.7121     2.0815    -2.9326 H      1 <0>       0.1200
30 H30      -0.1493     2.3898    -1.2723 H      1 <0>       0.1200
31 H31      -0.2656     0.0139    -3.9833 H      1 <0>       0.1300
32 H32       1.4706     0.2162    -3.6585 H      1 <0>       0.1300
33 H33      -0.0618    -2.2159    -3.6969 H      1 <0>       0.1100
34 H34       1.6789    -2.0131    -3.3717 H      1 <0>       0.1000
35 H35       0.5425    -3.1099    -1.4398 H      1 <0>       0.1300
36 H36       1.2979    -1.4741     0.2956 H      1 <0>       0.1000
37 H37       2.4727    -1.5799    -1.0405 H      1 <0>       0.1100
38 H38       2.2310     0.6312    -1.4253 H      1 <0>       0.1300
39 H39       1.0593     0.7368    -0.0922 H      1 <0>       0.1300
40 H40      -4.2317    -1.8572    -3.8040 H      1 <0>       0.3800
41 H41      -3.5842    -4.5131    -0.0074 H      1 <0>       0.1200
42 H42      -3.3232    -6.9475     0.2546 H      1 <0>       0.1300
43 H43      -3.6761    -8.4382    -1.6733 H      1 <0>       0.1300
44 H44      -4.2908    -7.4944    -3.8630 H      1 <0>       0.1300
45 H45      -4.5563    -5.0604    -4.1239 H      1 <0>       0.1400
46 H46      -6.1615    -1.7553    -3.5384 H      1 <0>       0.1300
47 H47      -8.3674    -1.0692    -2.6861 H      1 <0>       0.1300
48 H48      -9.0373    -1.6564    -0.3905 H      1 <0>       0.1300
49 H49      -7.5017    -2.9304     1.0524 H      1 <0>       0.1300
50 H50      -5.2977    -3.6205     0.1984 H      1 <0>       0.1300
51 H51      -1.2762     0.4569    -0.5366 H      1 <0>       0.1400
52 H52      -1.8429     0.1424    -2.1922 H      1 <0>       0.1400
@<TRIPOS>BOND
1    1    2 1
2    1   28 1
3    1   29 1
4    1   30 1
5    2    7 1
6    2   27 1
7    2    3 1
8    3    4 1
9    3   31 1
10    3   32 1
11    4    5 1
12    4   33 1
13    4   34 1
14    5    6 1
15    5    8 1
16    5   35 1
17    6    7 1
18    6   36 1
19    6   37 1
20    7   38 1
21    7   39 1
22    8    9 1
23    8   10 1
24    8   27 1
25   10   11 1
26   11   12 2
27   11   13 1
28   13   14 1
29   13   15 1
30   13   21 1
31   14   40 1
32   15   20 ar
33   15   16 ar
34   16   17 ar
35   16   41 1
36   17   18 ar
37   17   42 1
38   18   19 ar
39   18   43 1
40   19   20 ar
41   19   44 1
42   20   45 1
43   21   26 ar
44   21   22 ar
45   22   23 ar
46   22   46 1
47   23   24 ar
48   23   47 1
49   24   25 ar
50   24   48 1
51   25   26 ar
52   25   49 1
53   26   50 1
54   27   51 1
55   27   52 1
