@<TRIPOS>MOLECULE
ZINC000100015775
54    56    1     0     0
SMALL
USER_CHARGES
@<TRIPOS>ATOM
1      C1     -0.0181    1.5251    0.0479 C.3      1 ZINC000100015775   -0.1800
2      C2      0.0021   -0.0041    0.0020 C.3      1 ZINC000100015775    0.0100
3      C3      0.7530   -0.5410    1.2221 C.3      1 ZINC000100015775   -0.1800
4      N4     -1.3761   -0.5125    0.0124 N.4      1 ZINC000100015775   -0.2700
5      C5     -2.0721   -0.0941    1.2365 C.3      1 ZINC000100015775   -0.0500
6      C6     -2.1126   -0.0538   -1.1953 C.3      1 ZINC000100015775    0.0400
7      H7     -2.4437    0.9810   -1.1083 H        1 ZINC000100015775    0.1500
8      C8     -3.2983   -1.0390   -1.3142 C.3      1 ZINC000100015775   -0.1400
9      C9     -2.8199   -2.3210   -0.6014 C.3      1 ZINC000100015775   -0.1400
10     C10    -1.3886   -1.9940   -0.1167 C.3      1 ZINC000100015775    0.0300
11     H11    -1.1477   -2.4920    0.8225 H        1 ZINC000100015775    0.1500
12     C12    -0.4127   -2.3756   -1.2413 C.3      1 ZINC000100015775   -0.1400
13     C13    -0.9348   -1.8083   -2.5644 C.3      1 ZINC000100015775    0.0800
14     H14    -0.1987   -1.9827   -3.3492 H        1 ZINC000100015775    0.1200
15     O15    -2.1799   -2.4679   -2.9149 O.3      1 ZINC000100015775   -0.3400
16     C16    -2.4581   -2.5896   -4.2225 C.2      1 ZINC000100015775    0.4600
17     O17    -1.6866   -2.1592   -5.0468 O.2      1 ZINC000100015775   -0.4700
18     C18    -3.7325   -3.2630   -4.6623 C.3      1 ZINC000100015775   -0.0400
19     H19    -3.7476   -4.2885   -4.2933 H        1 ZINC000100015775    0.1300
20     C20    -4.9331   -2.5004   -4.0984 C.3      1 ZINC000100015775    0.0900
21     O21    -6.1360   -3.2030   -4.4170 O.3      1 ZINC000100015775   -0.5600
22     C22    -3.8035   -3.2696   -6.1676 C.ar     1 ZINC000100015775   -0.0800
23     C23    -3.7929   -2.0762   -6.8653 C.ar     1 ZINC000100015775   -0.0900
24     C24    -3.8581   -2.0823   -8.2460 C.ar     1 ZINC000100015775   -0.1200
25     C25    -3.9334   -3.2817   -8.9292 C.ar     1 ZINC000100015775   -0.1100
26     C26    -3.9431   -4.4750   -8.2316 C.ar     1 ZINC000100015775   -0.1200
27     C27    -3.8736   -4.4691   -6.8510 C.ar     1 ZINC000100015775   -0.1000
28     C28    -1.1847   -0.2652   -2.4024 C.3      1 ZINC000100015775   -0.1600
29     H29     1.0044    1.9024    0.0401 H        1 ZINC000100015775    0.1000
30     H30    -0.5531    1.9076   -0.8214 H        1 ZINC000100015775    0.0800
31     H31    -0.5202    1.8547    0.9575 H        1 ZINC000100015775    0.0800
32     H32     0.5041   -0.3337   -0.9076 H        1 ZINC000100015775    0.1400
33     H33     0.2510   -0.2114    2.1318 H        1 ZINC000100015775    0.0800
34     H34     0.7674   -1.6304    1.1895 H        1 ZINC000100015775    0.0800
35     H35     1.7756   -0.1637    1.2144 H        1 ZINC000100015775    0.1000
36     H36    -2.0845    0.9943    1.2935 H        1 ZINC000100015775    0.1200
37     H37    -3.0956   -0.4686    1.2186 H        1 ZINC000100015775    0.1200
38     H38    -1.5528   -0.4976    2.1058 H        1 ZINC000100015775    0.1200
39     H39    -4.1792   -0.6342   -0.8160 H        1 ZINC000100015775    0.0900
40     H40    -3.5157   -1.2462   -2.3620 H        1 ZINC000100015775    0.1200
41     H41    -3.4656   -2.5465    0.2473 H        1 ZINC000100015775    0.0900
42     H42    -2.8021   -3.1586   -1.2987 H        1 ZINC000100015775    0.1300
43     H43     0.5713   -1.9582   -1.0280 H        1 ZINC000100015775    0.1100
44     H44    -0.3433   -3.4612   -1.3116 H        1 ZINC000100015775    0.1200
45     H45    -4.8358   -2.4188   -3.0158 H        1 ZINC000100015775    0.0600
46     H46    -4.9681   -1.5028   -4.5362 H        1 ZINC000100015775    0.0500
47     H47    -6.9394   -2.7758   -4.0897 H        1 ZINC000100015775    0.3900
48     H48    -3.7340   -1.1392   -6.3315 H        1 ZINC000100015775    0.1100
49     H49    -3.8505   -1.1499   -8.7911 H        1 ZINC000100015775    0.1200
50     H50    -3.9850   -3.2864  -10.0079 H        1 ZINC000100015775    0.1300
51     H51    -4.0023   -5.4121   -8.7653 H        1 ZINC000100015775    0.1300
52     H52    -3.8812   -5.4015   -6.3059 H        1 ZINC000100015775    0.1200
53     H53    -1.6584    0.1245   -3.3035 H        1 ZINC000100015775    0.1200
54     H54    -0.2347    0.2432   -2.2382 H        1 ZINC000100015775    0.1100
@<TRIPOS>BOND
1     1     2     1
2     1     29    1
3     1     30    1
4     1     31    1
5     2     3     1
6     2     4     1
7     2     32    1
8     3     33    1
9     3     34    1
10    3     35    1
11    4     10    1
12    4     5     1
13    4     6     1
14    5     36    1
15    5     37    1
16    5     38    1
17    6     7     1
18    6     28    1
19    6     8     1
20    8     9     1
21    8     39    1
22    8     40    1
23    9     10    1
24    9     41    1
25    9     42    1
26    10    11    1
27    10    12    1
28    12    13    1
29    12    43    1
30    12    44    1
31    13    14    1
32    13    15    1
33    13    28    1
34    15    16    1
35    16    17    2
36    16    18    1
37    18    19    1
38    18    20    1
39    18    22    1
40    20    21    1
41    20    45    1
42    20    46    1
43    21    47    1
44    22    27    ar
45    22    23    ar
46    23    24    ar
47    23    48    1
48    24    25    ar
49    24    49    1
50    25    26    ar
51    25    50    1
52    26    27    ar
53    26    51    1
54    27    52    1
55    28    53    1
56    28    54    1
@<TRIPOS>SUBSTRUCTURE
1   ZINC000100015775 1     RESIDUE    1   A     ZIN   1
