@<TRIPOS>MOLECULE
ZINC000001530694
57    58    1     0     0
SMALL
USER_CHARGES
@<TRIPOS>ATOM
1      C1      0.5726    0.7818    0.2985 C.3      1 ZINC000001530694   -0.1500
2      C2      0.6399   -0.7366    0.1225 C.3      1 ZINC000001530694    0.0600
3      O3      1.1660   -1.0434   -1.1703 O.3      1 ZINC000001530694   -0.3100
4      C4      1.2008   -2.3552   -1.5272 C.ar     1 ZINC000001530694    0.1200
5      C5      0.6532   -3.3162   -0.6934 C.ar     1 ZINC000001530694   -0.1700
6      C6      0.6890   -4.6496   -1.0581 C.ar     1 ZINC000001530694   -0.1000
7      C7      1.2708   -5.0268   -2.2536 C.ar     1 ZINC000001530694   -0.1200
8      C8      1.8198   -4.0725   -3.0904 C.ar     1 ZINC000001530694   -0.1600
9      C9      1.7817   -2.7345   -2.7340 C.ar     1 ZINC000001530694    0.0800
10     O10     2.3211   -1.7947   -3.5558 O.3      1 ZINC000001530694   -0.3200
11     C11     2.9788   -2.2640   -4.7344 C.3      1 ZINC000001530694    0.0200
12     C12     3.6276   -1.0839   -5.4606 C.3      1 ZINC000001530694    0.0000
13     N13     4.7184   -0.5431   -4.6387 N.4      1 ZINC000001530694   -0.5100
14     H14     4.3650   -0.3077   -3.7233 H        1 ZINC000001530694    0.4300
15     H15     5.4476   -1.2348   -4.5501 H        1 ZINC000001530694    0.4300
16     C16     5.2622    0.6624   -5.2784 C.3      1 ZINC000001530694    0.0300
17     H17     4.4579    1.3785   -5.4469 H        1 ZINC000001530694    0.1400
18     C18     5.8988    0.2859   -6.6178 C.3      1 ZINC000001530694   -0.1800
19     C19     6.3208    1.2891   -4.3688 C.3      1 ZINC000001530694   -0.0900
20     C20     5.6743    1.7464   -3.0866 C.ar     1 ZINC000001530694   -0.1900
21     C21     5.0403    2.9737   -3.0330 C.ar     1 ZINC000001530694   -0.0100
22     C22     4.4464    3.3951   -1.8588 C.ar     1 ZINC000001530694   -0.2200
23     C23     4.4869    2.5856   -0.7331 C.ar     1 ZINC000001530694    0.2500
24     O24     3.9031    2.9976    0.4229 O.3      1 ZINC000001530694   -0.3000
25     C25     3.2651    4.2762    0.4077 C.3      1 ZINC000001530694    0.0200
26     C26     5.1239    1.3542   -0.7895 C.ar     1 ZINC000001530694   -0.7000
27     S27     5.1769    0.3227    0.6380 S.o2     1 ZINC000001530694    2.7000
28     N28     6.0822    1.1108    1.7789 N.am     1 ZINC000001530694   -1.2400
29     O29     3.8503    0.2701    1.1445 O.2      1 ZINC000001530694   -0.9400
30     O30     5.9146   -0.8346    0.2696 O.2      1 ZINC000001530694   -0.9600
31     C31     5.7115    0.9353   -1.9673 C.ar     1 ZINC000001530694    0.0000
32     H32     1.5818    1.1935    0.2912 H        1 ZINC000001530694    0.0800
33     H33    -0.0033    1.2170   -0.5182 H        1 ZINC000001530694    0.0600
34     H34     0.0913    1.0165    1.2479 H        1 ZINC000001530694    0.0800
35     H35     1.2875   -1.1628    0.8888 H        1 ZINC000001530694    0.0700
36     H36    -0.3608   -1.1580    0.2169 H        1 ZINC000001530694    0.0600
37     H37     0.1985   -3.0242    0.2417 H        1 ZINC000001530694    0.1400
38     H38     0.2617   -5.3980   -0.4071 H        1 ZINC000001530694    0.1300
39     H39     1.2972   -6.0693   -2.5348 H        1 ZINC000001530694    0.1300
40     H40     2.2745   -4.3700   -4.0238 H        1 ZINC000001530694    0.1300
41     H41     3.7462   -2.9873   -4.4586 H        1 ZINC000001530694    0.0900
42     H42     2.2509   -2.7394   -5.3918 H        1 ZINC000001530694    0.1100
43     H43     4.0263   -1.4209   -6.4174 H        1 ZINC000001530694    0.1500
44     H44     2.8817   -0.3076   -5.6309 H        1 ZINC000001530694    0.1400
45     H45     5.1446   -0.1606   -7.2658 H        1 ZINC000001530694    0.0800
46     H46     6.3022    1.1803   -7.0925 H        1 ZINC000001530694    0.1100
47     H47     6.7031   -0.4302   -6.4492 H        1 ZINC000001530694    0.0900
48     H48     7.0904    0.5505   -4.1444 H        1 ZINC000001530694    0.1000
49     H49     6.7730    2.1434   -4.8726 H        1 ZINC000001530694    0.1200
50     H50     5.0094    3.6038   -3.9096 H        1 ZINC000001530694    0.1400
51     H51     3.9515    4.3541   -1.8173 H        1 ZINC000001530694    0.1500
52     H52     2.4703    4.2768   -0.3382 H        1 ZINC000001530694    0.0700
53     H53     2.8413    4.4825    1.3905 H        1 ZINC000001530694    0.1200
54     H54     3.9972    5.0446    0.1591 H        1 ZINC000001530694    0.0700
55     H55     5.9001    0.9741    2.7218 H        1 ZINC000001530694    0.4300
56     H56     6.7946    1.7091    1.5043 H        1 ZINC000001530694    0.4200
57     H57     6.2071   -0.0233   -2.0118 H        1 ZINC000001530694    0.1500
@<TRIPOS>BOND
1     1     2     1
2     1     32    1
3     1     33    1
4     1     34    1
5     2     3     1
6     2     35    1
7     2     36    1
8     3     4     1
9     4     9     ar
10    4     5     ar
11    5     6     ar
12    5     37    1
13    6     7     ar
14    6     38    1
15    7     8     ar
16    7     39    1
17    8     9     ar
18    8     40    1
19    9     10    1
20    10    11    1
21    11    12    1
22    11    41    1
23    11    42    1
24    12    13    1
25    12    43    1
26    12    44    1
27    13    14    1
28    13    15    1
29    13    16    1
30    16    17    1
31    16    18    1
32    16    19    1
33    18    45    1
34    18    46    1
35    18    47    1
36    19    20    1
37    19    48    1
38    19    49    1
39    20    31    ar
40    20    21    ar
41    21    22    ar
42    21    50    1
43    22    23    ar
44    22    51    1
45    23    24    1
46    23    26    ar
47    24    25    1
48    25    52    1
49    25    53    1
50    25    54    1
51    26    27    1
52    26    31    ar
53    27    28    am
54    27    29    2
55    27    30    2
56    28    55    1
57    28    56    1
58    31    57    1
@<TRIPOS>SUBSTRUCTURE
1   ZINC000001530694 1     RESIDUE    1   A     ZIN   1
