@<TRIPOS>MOLECULE
ZINC000000018087
49    51    1     0     0
SMALL
USER_CHARGES
@<TRIPOS>ATOM
1      C1     -0.0178    1.4648    0.0101 C.3      1 ZINC000000018087   -0.0500
2      N2      0.0021   -0.0041    0.0020 N.4      1 ZINC000000018087   -0.3900
3      H3      0.4743   -0.3295   -0.8281 H        1 ZINC000000018087    0.4300
4      C4      0.7126   -0.4907    1.1921 C.3      1 ZINC000000018087   -0.0500
5      C5     -1.3761   -0.5125    0.0124 C.3      1 ZINC000000018087   -0.0100
6      C6     -1.3584   -2.0365   -0.1216 C.3      1 ZINC000000018087   -0.0600
7      C7     -2.7722   -2.5582   -0.1109 C.2      1 ZINC000000018087   -0.2000
8      C8     -3.4483   -3.0106    0.9568 C.2      1 ZINC000000018087    0.0900
9      N9     -4.7052   -3.4010    0.5822 N.pl3    1 ZINC000000018087   -0.5900
10     C10    -4.8728   -3.2042   -0.7702 C.ar     1 ZINC000000018087    0.1000
11     C11    -5.9300   -3.4257   -1.6463 C.ar     1 ZINC000000018087   -0.1100
12     C12    -5.7877   -3.1187   -2.9820 C.ar     1 ZINC000000018087   -0.0800
13     C13    -4.5986   -2.5896   -3.4640 C.ar     1 ZINC000000018087   -0.1100
14     C14    -4.4660   -2.2610   -4.9287 C.3      1 ZINC000000018087   -0.5800
15     S15    -4.9934   -0.5490   -5.2145 S.o2     1 ZINC000000018087    2.6200
16     O16    -6.3930   -0.4172   -5.0069 O.2      1 ZINC000000018087   -0.9400
17     O17    -4.0761    0.3607   -4.6227 O.2      1 ZINC000000018087   -0.9500
18     N18    -4.7991   -0.3232   -6.8434 N.am     1 ZINC000000018087   -1.0200
19     C19    -3.5776    0.1633   -7.5014 C.3      1 ZINC000000018087    0.1200
20     C20    -3.8707    0.2372   -9.0147 C.3      1 ZINC000000018087   -0.1300
21     C21    -5.4188    0.3277   -9.0648 C.3      1 ZINC000000018087   -0.1300
22     C22    -5.8202   -0.5827   -7.8747 C.3      1 ZINC000000018087    0.1100
23     C23    -3.5471   -2.3639   -2.6207 C.ar     1 ZINC000000018087   -0.0600
24     C24    -3.6716   -2.6617   -1.2626 C.ar     1 ZINC000000018087   -0.1000
25     H25     1.0047    1.8421    0.0024 H        1 ZINC000000018087    0.1200
26     H26    -0.5450    1.8259   -0.8730 H        1 ZINC000000018087    0.1200
27     H27    -0.5280    1.8163    0.9069 H        1 ZINC000000018087    0.1200
28     H28     0.7274   -1.5806    1.1861 H        1 ZINC000000018087    0.1200
29     H29     1.7352   -0.1134    1.1844 H        1 ZINC000000018087    0.1200
30     H30     0.2024   -0.1392    2.0889 H        1 ZINC000000018087    0.1200
31     H31    -1.8584   -0.2358    0.9500 H        1 ZINC000000018087    0.1300
32     H32    -1.9290   -0.0808   -0.8218 H        1 ZINC000000018087    0.1300
33     H33    -0.8762   -2.3132   -1.0592 H        1 ZINC000000018087    0.0900
34     H34    -0.8055   -2.4683    0.7126 H        1 ZINC000000018087    0.0900
35     H35    -3.0579   -3.0597    1.9626 H        1 ZINC000000018087    0.1800
36     H36    -5.3778   -3.7624    1.1804 H        1 ZINC000000018087    0.4300
37     H37    -6.8593   -3.8374   -1.2811 H        1 ZINC000000018087    0.1300
38     H38    -6.6097   -3.2917   -3.6608 H        1 ZINC000000018087    0.1400
39     H39    -3.4261   -2.3766   -5.2344 H        1 ZINC000000018087    0.1400
40     H40    -5.0931   -2.9363   -5.5108 H        1 ZINC000000018087    0.1400
41     H41    -3.3228    1.1537   -7.1243 H        1 ZINC000000018087    0.0700
42     H42    -2.7561   -0.5288   -7.3162 H        1 ZINC000000018087    0.0600
43     H43    -3.4180    1.1270   -9.4522 H        1 ZINC000000018087    0.0800
44     H44    -3.5204   -0.6630   -9.5198 H        1 ZINC000000018087    0.0800
45     H45    -5.7555    1.3525   -8.9080 H        1 ZINC000000018087    0.0800
46     H46    -5.8031   -0.0686  -10.0047 H        1 ZINC000000018087    0.0900
47     H47    -5.8047   -1.6301   -8.1762 H        1 ZINC000000018087    0.0700
48     H48    -6.8076   -0.3085   -7.5035 H        1 ZINC000000018087    0.0900
49     H49    -2.6248   -1.9519   -3.0029 H        1 ZINC000000018087    0.1300
@<TRIPOS>BOND
1     1     2     1
2     1     25    1
3     1     26    1
4     1     27    1
5     2     3     1
6     2     4     1
7     2     5     1
8     4     28    1
9     4     29    1
10    4     30    1
11    5     6     1
12    5     31    1
13    5     32    1
14    6     7     1
15    6     33    1
16    6     34    1
17    7     24    1
18    7     8     2
19    8     9     1
20    8     35    1
21    9     10    1
22    9     36    1
23    10    24    ar
24    10    11    ar
25    11    12    ar
26    11    37    1
27    12    13    ar
28    12    38    1
29    13    14    1
30    13    23    ar
31    14    15    1
32    14    39    1
33    14    40    1
34    15    16    2
35    15    17    2
36    15    18    am
37    18    22    1
38    18    19    1
39    19    20    1
40    19    41    1
41    19    42    1
42    20    21    1
43    20    43    1
44    20    44    1
45    21    22    1
46    21    45    1
47    21    46    1
48    22    47    1
49    22    48    1
50    23    24    ar
51    23    49    1
@<TRIPOS>SUBSTRUCTURE
1   ZINC000000018087 1     RESIDUE    1   A     ZIN   1
