@<TRIPOS>MOLECULE
ZINC000004658557
8    7    0    0    0
SMALL
USER_CHARGES
NO_NAME
@<TRIPOS>ATOM
1 O1        0.0021    -0.0041     0.0020 O.co2  1 <0>      -0.6800
2 C2       -0.0145     1.2150     0.0087 C.2    1 <0>       0.4900
3 O3        1.0330     1.8389     0.0021 O.co2  1 <0>      -0.7000
4 C4       -1.3296     1.9507     0.0190 C.3    1 <0>       0.0100
5 O5       -2.4031     1.0074     0.0189 O.3    1 <0>      -0.5500
6 H6       -1.3917     2.5717     0.9126 H      1 <0>       0.0400
7 H7       -1.4001     2.5813    -0.8673 H      1 <0>       0.0400
8 H8       -3.2817     1.4114     0.0253 H      1 <0>       0.3500
@<TRIPOS>BOND
1    1    2 ar
2    2    3 ar
3    2    4 1
4    4    5 1
5    4    6 1
6    4    7 1
7    5    8 1
