@<TRIPOS>MOLECULE
ZINC000000001317
49   49    0    0    0
SMALL
USER_CHARGES
NO_NAME
@<TRIPOS>ATOM
1 C1        1.0403    -0.5259     1.5516 C.3    1 <0>      -0.1300
2 C2        0.1076    -1.3112     0.6274 C.3    1 <0>      -0.0800
3 C3       -0.1115    -2.7144     1.1965 C.3    1 <0>      -0.1400
4 C4       -1.2161    -0.5980     0.5258 C.ar   1 <0>      -0.0500
5 C5       -1.8642    -0.1770     1.6704 C.ar   1 <0>      -0.1100
6 C6       -3.0790     0.4770     1.5781 C.ar   1 <0>      -0.1400
7 C7       -3.6488     0.7120     0.3402 C.ar   1 <0>      -0.1100
8 C8       -3.0056     0.2939    -0.8083 C.ar   1 <0>      -0.1000
9 C9       -3.6270     0.5508    -2.1569 C.3    1 <0>      -0.0600
10 C10      -4.9927    -0.1352    -2.2282 C.3    1 <0>      -0.1400
11 C11      -3.8017     2.0572    -2.3594 C.3    1 <0>      -0.1400
12 C12      -1.7829    -0.3585    -0.7192 C.ar   1 <0>       0.1600
13 N13      -1.1284    -0.7830    -1.8808 N.am   1 <0>      -0.6900
14 C14       0.1708    -0.4795    -2.0715 C.2    1 <0>       0.5100
15 O15       0.7996     0.0732    -1.1939 O.2    1 <0>      -0.4800
16 C16       0.8423    -0.8270    -3.3751 C.3    1 <0>       0.0200
17 N17       2.2459    -0.3954    -3.3332 N.3    1 <0>      -0.4700
18 C18       3.0029    -1.1623    -2.3349 C.3    1 <0>      -0.0100
19 C19       2.9646    -2.6261    -2.6911 C.2    1 <0>       0.4700
20 O20       2.4517    -2.9857    -3.7371 O.co2  1 <0>      -0.7000
21 O21       3.4464    -3.4507    -1.9333 O.co2  1 <0>      -0.7200
22 C22       2.8684    -0.4993    -4.6597 C.3    1 <0>      -0.0200
23 C23       4.1343     0.3180    -4.6860 C.2    1 <0>       0.5000
24 O24       4.4914     0.9209    -3.6882 O.co2  1 <0>      -0.6900
25 O25       4.8012     0.3763    -5.7049 O.co2  1 <0>      -0.7300
26 H26       1.9977    -1.0417     1.6251 H      1 <0>       0.0500
27 H27       1.1964     0.4738     1.1462 H      1 <0>       0.0600
28 H28       0.5914    -0.4503     2.5420 H      1 <0>       0.0400
29 H29       0.5565    -1.3868    -0.3630 H      1 <0>       0.1200
30 H30      -0.5604    -2.6388     2.1869 H      1 <0>       0.0400
31 H31      -0.7760    -3.2739     0.5381 H      1 <0>       0.0500
32 H32       0.8459    -3.2302     1.2700 H      1 <0>       0.0600
33 H33      -1.4218    -0.3590     2.6387 H      1 <0>       0.1200
34 H34      -3.5842     0.8047     2.4747 H      1 <0>       0.1100
35 H35      -4.5979     1.2227     0.2714 H      1 <0>       0.1200
36 H36      -2.9790     0.1520    -2.9374 H      1 <0>       0.0800
37 H37      -4.8683    -1.2084    -2.0840 H      1 <0>       0.0500
38 H38      -5.6407     0.2636    -1.4477 H      1 <0>       0.0500
39 H39      -5.4422     0.0507    -3.2037 H      1 <0>       0.0500
40 H40      -2.8287     2.5459    -2.3086 H      1 <0>       0.0600
41 H41      -4.2511     2.2431    -3.3348 H      1 <0>       0.0500
42 H42      -4.4497     2.4560    -1.5788 H      1 <0>       0.0500
43 H43      -1.6098    -1.2957    -2.5489 H      1 <0>       0.4000
44 H44       0.7982    -1.9049    -3.5306 H      1 <0>       0.1000
45 H45       0.3308    -0.3206    -4.1936 H      1 <0>       0.0800
46 H46       4.0372    -0.8188    -2.3207 H      1 <0>       0.0900
47 H47       2.5580    -1.0161    -1.3506 H      1 <0>       0.0700
48 H48       3.1050    -1.5425    -4.8693 H      1 <0>       0.0800
49 H49       2.1781    -0.1244    -5.4154 H      1 <0>       0.0500
@<TRIPOS>BOND
1    1    2 1
2    1   26 1
3    1   27 1
4    1   28 1
5    2    3 1
6    2    4 1
7    2   29 1
8    3   30 1
9    3   31 1
10    3   32 1
11    4   12 ar
12    4    5 ar
13    5    6 ar
14    5   33 1
15    6    7 ar
16    6   34 1
17    7    8 ar
18    7   35 1
19    8    9 1
20    8   12 ar
21    9   10 1
22    9   11 1
23    9   36 1
24   10   37 1
25   10   38 1
26   10   39 1
27   11   40 1
28   11   41 1
29   11   42 1
30   12   13 1
31   13   14 am
32   13   43 1
33   14   15 2
34   14   16 1
35   16   17 1
36   16   44 1
37   16   45 1
38   17   18 1
39   17   22 1
40   18   19 1
41   18   46 1
42   18   47 1
43   19   20 ar
44   19   21 ar
45   22   23 1
46   22   48 1
47   22   49 1
48   23   24 ar
49   23   25 ar
