@<TRIPOS>MOLECULE
ZINC000005819214
51    51    1     0     0
SMALL
USER_CHARGES
@<TRIPOS>ATOM
1      C1     -1.9578    1.5692    1.0542 C.3      1 ZINC000005819214   -0.1600
2      C2     -1.9644    0.0424    1.1523 C.3      1 ZINC000005819214   -0.1200
3      C3     -1.2133   -0.5487   -0.0425 C.3      1 ZINC000005819214   -0.1000
4      C4      0.2667   -0.1713    0.0481 C.3      1 ZINC000005819214   -0.1200
5      C5      0.9968   -0.6669   -1.2018 C.3      1 ZINC000005819214   -0.1500
6      C6     -1.3529   -2.0722   -0.0296 C.3      1 ZINC000005819214    0.1700
7      H7     -0.7775   -2.4968   -0.8523 H        1 ZINC000005819214    0.0900
8      N8     -0.8487   -2.5981    1.2414 N.am     1 ZINC000005819214   -0.7100
9      C9     -1.5461   -2.3986    2.3773 C.2      1 ZINC000005819214    0.5100
10     C10    -0.9637   -2.8178    3.7025 C.3      1 ZINC000005819214   -0.1800
11     O11    -2.6424   -1.8818    2.3330 O.2      1 ZINC000005819214   -0.5300
12     C12    -2.8267   -2.4507   -0.1894 C.3      1 ZINC000005819214   -0.1000
13     H13    -3.4367   -1.9236    0.5442 H        1 ZINC000005819214    0.1300
14     C14    -3.3143   -2.1369   -1.6257 C.3      1 ZINC000005819214    0.1200
15     H15    -2.5386   -2.3672   -2.3559 H        1 ZINC000005819214    0.1000
16     N16    -3.7313   -0.7370   -1.7382 N.pl3    1 ZINC000005819214   -0.6700
17     C17    -3.7056   -0.1113   -2.9543 C.cat    1 ZINC000005819214    0.7400
18     N18    -3.3014   -0.7748   -4.0362 N.pl3    1 ZINC000005819214   -0.8000
19     N19    -4.0848    1.1614   -3.0565 N.pl3    1 ZINC000005819214   -0.8000
20     H20    -4.3791    1.6446   -2.2686 H        1 ZINC000005819214    0.4400
21     H21    -4.0665    1.6051   -3.9189 H        1 ZINC000005819214    0.4400
22     C22    -4.5244   -3.0894   -1.7915 C.3      1 ZINC000005819214   -0.1000
23     C23    -4.0897   -4.3823   -1.0711 C.3      1 ZINC000005819214   -0.1900
24     H24    -3.6771   -5.0899   -1.7903 H        1 ZINC000005819214    0.0800
25     C25    -5.2671   -4.9976   -0.3595 C.2      1 ZINC000005819214    0.4900
26     O26    -6.2409   -5.3630   -0.9956 O.co2    1 ZINC000005819214   -0.6900
27     O27    -5.2458   -5.1299    0.8524 O.co2    1 ZINC000005819214   -0.6800
28     C28    -3.0108   -3.9759   -0.0489 C.3      1 ZINC000005819214    0.1200
29     H29    -3.3398   -4.2244    0.9601 H        1 ZINC000005819214    0.1000
30     O30    -1.7825   -4.6450   -0.3415 O.3      1 ZINC000005819214   -0.5800
31     H31    -2.4928    1.9903    1.9054 H        1 ZINC000005819214    0.0600
32     H32    -0.9289    1.9291    1.0577 H        1 ZINC000005819214    0.0500
33     H33    -2.4469    1.8760    0.1297 H        1 ZINC000005819214    0.0400
34     H34    -1.4753   -0.2645    2.0768 H        1 ZINC000005819214    0.0700
35     H35    -2.9933   -0.3175    1.1488 H        1 ZINC000005819214    0.0800
36     H36    -1.6331   -0.1531   -0.9673 H        1 ZINC000005819214    0.0600
37     H37     0.3617    0.9122    0.1188 H        1 ZINC000005819214    0.0600
38     H38     0.7059   -0.6331    0.9325 H        1 ZINC000005819214    0.0700
39     H39     2.0290   -0.3172   -1.1822 H        1 ZINC000005819214    0.0600
40     H40     0.9826   -1.7566   -1.2228 H        1 ZINC000005819214    0.0600
41     H41     0.4989   -0.2798   -2.0908 H        1 ZINC000005819214    0.0500
42     H42    -0.0129   -3.0899    1.2654 H        1 ZINC000005819214    0.4000
43     H43    -0.3907   -1.9923    4.1249 H        1 ZINC000005819214    0.0900
44     H44    -1.7699   -3.0871    4.3848 H        1 ZINC000005819214    0.0900
45     H45    -0.3092   -3.6771    3.5563 H        1 ZINC000005819214    0.0800
46     H46    -4.0257   -0.2539   -0.9503 H        1 ZINC000005819214    0.4300
47     H47    -3.0252   -1.7017   -3.9617 H        1 ZINC000005819214    0.4400
48     H48    -3.2831   -0.3311   -4.8985 H        1 ZINC000005819214    0.4400
49     H49    -5.4100   -2.6673   -1.3165 H        1 ZINC000005819214    0.0800
50     H50    -4.7134   -3.2859   -2.8469 H        1 ZINC000005819214    0.0700
51     H51    -1.8560   -5.6088   -0.3669 H        1 ZINC000005819214    0.3800
@<TRIPOS>BOND
1     1     2     1
2     1     31    1
3     1     32    1
4     1     33    1
5     2     3     1
6     2     34    1
7     2     35    1
8     3     4     1
9     3     6     1
10    3     36    1
11    4     5     1
12    4     37    1
13    4     38    1
14    5     39    1
15    5     40    1
16    5     41    1
17    6     7     1
18    6     8     1
19    6     12    1
20    8     9     am
21    8     42    1
22    9     10    1
23    9     11    2
24    10    43    1
25    10    44    1
26    10    45    1
27    12    13    1
28    12    28    1
29    12    14    1
30    14    15    1
31    14    16    1
32    14    22    1
33    16    17    ar
34    16    46    1
35    17    18    ar
36    17    19    ar
37    18    47    1
38    18    48    1
39    19    20    1
40    19    21    1
41    22    23    1
42    22    49    1
43    22    50    1
44    23    24    1
45    23    25    1
46    23    28    1
47    25    26    ar
48    25    27    ar
49    28    29    1
50    28    30    1
51    30    51    1
@<TRIPOS>SUBSTRUCTURE
1   ZINC000005819214 1     RESIDUE    1   A     ZIN   1
