@<TRIPOS>MOLECULE
ZINC000004097427
78    83    1     0     0
SMALL
USER_CHARGES
@<TRIPOS>ATOM
1      C1     -4.8804   -3.3276    9.0545 C.3      1 ZINC000004097427   -0.1500
2      C2     -4.3808   -4.5769    8.3261 C.3      1 ZINC000004097427    0.0800
3      O3     -2.9583   -4.6562    8.4373 O.3      1 ZINC000004097427   -0.2800
4      C4     -2.3537   -5.7105    7.8433 C.2      1 ZINC000004097427    0.5000
5      N5     -2.9694   -6.6511    7.1759 N.2      1 ZINC000004097427   -0.5400
6      C6     -2.0597   -7.5508    6.7153 C.ar     1 ZINC000004097427    0.0700
7      C7     -2.1655   -8.7221    5.9631 C.ar     1 ZINC000004097427   -0.0400
8      C8     -1.0340   -9.4438    5.6423 C.ar     1 ZINC000004097427   -0.1400
9      C9      0.2142   -9.0208    6.0577 C.ar     1 ZINC000004097427   -0.0600
10     C10     0.3466   -7.8527    6.8105 C.ar     1 ZINC000004097427   -0.1100
11     C11     1.6781   -7.4015    7.2531 C.2      1 ZINC000004097427    0.5000
12     O12     2.0058   -6.2406    7.1067 O.2      1 ZINC000004097427   -0.4600
13     O13     2.5320   -8.2764    7.8200 O.3      1 ZINC000004097427   -0.3400
14     C14     3.7611   -7.7347    8.3714 C.3      1 ZINC000004097427    0.2600
15     H15     3.5751   -6.7332    8.7591 H        1 ZINC000004097427    0.1100
16     C16     4.2528   -8.6372    9.5049 C.3      1 ZINC000004097427   -0.1500
17     O17     4.7716   -7.6708    7.3306 O.3      1 ZINC000004097427   -0.3400
18     C18     5.2517   -6.4532    7.0194 C.2      1 ZINC000004097427    0.6000
19     O19     4.6105   -5.4593    7.2944 O.2      1 ZINC000004097427   -0.5100
20     O20     6.4421   -6.3368    6.4035 O.3      1 ZINC000004097427   -0.3300
21     C21     6.8482   -5.0021    6.0009 C.3      1 ZINC000004097427    0.1100
22     C22     7.2111   -4.1834    7.2414 C.3      1 ZINC000004097427   -0.1500
23     C23     7.6390   -2.7771    6.8171 C.3      1 ZINC000004097427   -0.1200
24     C24     8.8556   -2.8709    5.8940 C.3      1 ZINC000004097427   -0.1200
25     C25     8.4927   -3.6896    4.6535 C.3      1 ZINC000004097427   -0.1200
26     C26     8.0648   -5.0959    5.0778 C.3      1 ZINC000004097427   -0.1100
27     C27    -0.7958   -7.1125    7.1422 C.ar     1 ZINC000004097427    0.1000
28     N28    -1.0096   -5.9474    7.8466 N.pl3    1 ZINC000004097427   -0.4700
29     C29     0.0162   -5.1178    8.4836 C.3      1 ZINC000004097427    0.1400
30     C30     0.0176   -3.7488    7.8537 C.ar     1 ZINC000004097427   -0.1200
31     C31     0.7827   -3.5100    6.7262 C.ar     1 ZINC000004097427   -0.0800
32     C32     0.7879   -2.2583    6.1450 C.ar     1 ZINC000004097427   -0.1100
33     C33     0.0200   -1.2337    6.6961 C.ar     1 ZINC000004097427    0.0100
34     C34     0.0210    0.1129    6.0762 C.ar     1 ZINC000004097427   -0.0500
35     C35     1.1276    0.9460    6.2141 C.ar     1 ZINC000004097427   -0.1100
36     C36     1.1246    2.1991    5.6347 C.ar     1 ZINC000004097427   -0.1400
37     C37     0.0253    2.6346    4.9152 C.ar     1 ZINC000004097427   -0.1200
38     C38    -1.0804    1.8206    4.7689 C.ar     1 ZINC000004097427   -0.1100
39     C39    -1.0916    0.5526    5.3419 C.ar     1 ZINC000004097427    0.0600
40     C40    -2.2771   -0.3254    5.1868 C.2      1 ZINC000004097427    0.0700
41     N41    -2.4281   -1.5497    5.6814 N.2      1 ZINC000004097427   -0.3400
42     N42    -3.5931   -1.9718    5.3252 N.pl3    1 ZINC000004097427   -0.1900
43     N43    -4.1767   -1.0606    4.6278 N.2      1 ZINC000004097427   -0.2000
44     N44    -3.3969   -0.0384    4.5312 N.2      1 ZINC000004097427   -0.3700
45     C45    -0.7494   -1.4804    7.8322 C.ar     1 ZINC000004097427   -0.0700
46     C46    -0.7505   -2.7373    8.4019 C.ar     1 ZINC000004097427   -0.0800
47     H47    -4.4310   -2.4415    8.6062 H        1 ZINC000004097427    0.0700
48     H48    -5.9654   -3.2671    8.9697 H        1 ZINC000004097427    0.0800
49     H49    -4.6008   -3.3841   10.1065 H        1 ZINC000004097427    0.0600
50     H50    -4.8302   -5.4630    8.7744 H        1 ZINC000004097427    0.0600
51     H51    -4.6604   -4.5203    7.2741 H        1 ZINC000004097427    0.0800
52     H52    -3.1348   -9.0642    5.6319 H        1 ZINC000004097427    0.1400
53     H53    -1.1250  -10.3492    5.0606 H        1 ZINC000004097427    0.1400
54     H54     1.0907   -9.5964    5.7992 H        1 ZINC000004097427    0.1400
55     H55     4.4389   -9.6388    9.1171 H        1 ZINC000004097427    0.0900
56     H56     5.1755   -8.2306    9.9188 H        1 ZINC000004097427    0.0900
57     H57     3.4942   -8.6852   10.2861 H        1 ZINC000004097427    0.0900
58     H58     6.0277   -4.5167    5.4724 H        1 ZINC000004097427    0.0900
59     H59     6.3444   -4.1166    7.8990 H        1 ZINC000004097427    0.0800
60     H60     8.0315   -4.6689    7.7699 H        1 ZINC000004097427    0.0700
61     H61     6.8185   -2.2916    6.2886 H        1 ZINC000004097427    0.0700
62     H62     7.8975   -2.1938    7.7008 H        1 ZINC000004097427    0.0700
63     H63     9.1604   -1.8690    5.5917 H        1 ZINC000004097427    0.0700
64     H64     9.6760   -3.3564    6.4225 H        1 ZINC000004097427    0.0600
65     H65     7.6722   -3.2042    4.1250 H        1 ZINC000004097427    0.0700
66     H66     9.3594   -3.7565    3.9959 H        1 ZINC000004097427    0.0700
67     H67     8.8852   -5.5814    5.6063 H        1 ZINC000004097427    0.0800
68     H68     7.8062   -5.6792    4.1941 H        1 ZINC000004097427    0.0800
69     H69    -0.1990   -5.0276    9.5483 H        1 ZINC000004097427    0.0800
70     H70     0.9936   -5.5810    8.3485 H        1 ZINC000004097427    0.1200
71     H71     1.3772   -4.3045    6.3001 H        1 ZINC000004097427    0.1300
72     H72     1.3861   -2.0728    5.2652 H        1 ZINC000004097427    0.1100
73     H73     1.9884    0.6123    6.7746 H        1 ZINC000004097427    0.1200
74     H74     1.9845    2.8433    5.7438 H        1 ZINC000004097427    0.1200
75     H75     0.0323    3.6167    4.4659 H        1 ZINC000004097427    0.1200
76     H76    -1.9350    2.1665    4.2065 H        1 ZINC000004097427    0.1300
77     H77    -1.3460   -0.6903    8.2636 H        1 ZINC000004097427    0.1100
78     H78    -1.3464   -2.9297    9.2818 H        1 ZINC000004097427    0.1100
@<TRIPOS>BOND
1     1     2     1
2     1     47    1
3     1     48    1
4     1     49    1
5     2     3     1
6     2     50    1
7     2     51    1
8     3     4     1
9     4     28    1
10    4     5     2
11    5     6     1
12    6     27    ar
13    6     7     ar
14    7     8     ar
15    7     52    1
16    8     9     ar
17    8     53    1
18    9     10    ar
19    9     54    1
20    10    11    1
21    10    27    ar
22    11    12    2
23    11    13    1
24    13    14    1
25    14    15    1
26    14    16    1
27    14    17    1
28    16    55    1
29    16    56    1
30    16    57    1
31    17    18    1
32    18    19    2
33    18    20    1
34    20    21    1
35    21    26    1
36    21    22    1
37    21    58    1
38    22    23    1
39    22    59    1
40    22    60    1
41    23    24    1
42    23    61    1
43    23    62    1
44    24    25    1
45    24    63    1
46    24    64    1
47    25    26    1
48    25    65    1
49    25    66    1
50    26    67    1
51    26    68    1
52    27    28    1
53    28    29    1
54    29    30    1
55    29    69    1
56    29    70    1
57    30    46    ar
58    30    31    ar
59    31    32    ar
60    31    71    1
61    32    33    ar
62    32    72    1
63    33    34    1
64    33    45    ar
65    34    39    ar
66    34    35    ar
67    35    36    ar
68    35    73    1
69    36    37    ar
70    36    74    1
71    37    38    ar
72    37    75    1
73    38    39    ar
74    38    76    1
75    39    40    1
76    40    44    1
77    40    41    2
78    41    42    1
79    42    43    1
80    43    44    2
81    45    46    ar
82    45    77    1
83    46    78    1
@<TRIPOS>SUBSTRUCTURE
1   ZINC000004097427 1     RESIDUE    1   A     ZIN   1
