@<TRIPOS>MOLECULE
ZINC000085205451
48    51    1     0     0
SMALL
USER_CHARGES
@<TRIPOS>ATOM
1      C1      0.0413   -1.1879    0.0177 C.1      1 ZINC000085205451   -0.1800
2      C2      0.0170   -0.0142    0.0249 C.1      1 ZINC000085205451   -0.2100
3      C3     -0.0135    1.4575    0.0339 C.3      1 ZINC000085205451    0.2500
4      O4     -0.7036    1.9306    1.1924 O.3      1 ZINC000085205451   -0.5400
5      C5     -0.6938    1.9881   -1.2525 C.3      1 ZINC000085205451   -0.1500
6      C6      0.3971    2.7695   -2.0345 C.3      1 ZINC000085205451   -0.1100
7      C7      1.7000    2.1483   -1.5189 C.3      1 ZINC000085205451   -0.0800
8      H8      1.8538    1.1654   -1.9643 H        1 ZINC000085205451    0.0800
9      C9      2.9459    3.0005   -1.6786 C.3      1 ZINC000085205451   -0.0800
10     H10     2.8059    3.9616   -1.1839 H        1 ZINC000085205451    0.0900
11     C11     3.2382    3.2155   -3.1665 C.3      1 ZINC000085205451   -0.1100
12     C12     4.4540    4.1334   -3.3114 C.3      1 ZINC000085205451   -0.1000
13     C13     5.6150    3.5320   -2.5407 C.2      1 ZINC000085205451   -0.0200
14     C14     6.7905    3.4416   -3.1624 C.2      1 ZINC000085205451   -0.2400
15     C15     7.9513    2.8829   -2.4609 C.2      1 ZINC000085205451    0.3900
16     O16     8.9051    2.4339   -3.0615 O.2      1 ZINC000085205451   -0.4600
17     C17     7.8965    2.8964   -0.9458 C.3      1 ZINC000085205451   -0.1700
18     C18     6.5483    2.3083   -0.5318 C.3      1 ZINC000085205451   -0.1100
19     C19     5.3887    3.0859   -1.1291 C.3      1 ZINC000085205451   -0.0600
20     H20     5.2352    3.9799   -0.5247 H        1 ZINC000085205451    0.0900
21     C21     4.1129    2.2414   -1.0306 C.3      1 ZINC000085205451   -0.0700
22     H22     4.2585    1.3133   -1.5832 H        1 ZINC000085205451    0.0700
23     C23     3.8449    1.9102    0.4346 C.3      1 ZINC000085205451   -0.1200
24     C24     2.5120    1.1671    0.6155 C.3      1 ZINC000085205451   -0.1000
25     C25     1.4055    2.0157   -0.0005 C.3      1 ZINC000085205451   -0.0400
26     C26     1.4345    3.4220    0.6014 C.3      1 ZINC000085205451   -0.1400
27     H27     0.0630   -2.2377    0.0113 H        1 ZINC000085205451    0.2200
28     H28    -1.6184    1.6241    1.2578 H        1 ZINC000085205451    0.3800
29     H29    -1.0602    1.1553   -1.8528 H        1 ZINC000085205451    0.0700
30     H30    -1.5172    2.6536   -0.9931 H        1 ZINC000085205451    0.0800
31     H31     0.2917    2.6095   -3.1075 H        1 ZINC000085205451    0.0700
32     H32     0.3558    3.8323   -1.7961 H        1 ZINC000085205451    0.0800
33     H33     3.4479    2.2559   -3.6390 H        1 ZINC000085205451    0.0700
34     H34     2.3742    3.6770   -3.6446 H        1 ZINC000085205451    0.0700
35     H35     4.7213    4.2222   -4.3644 H        1 ZINC000085205451    0.0800
36     H36     4.2185    5.1181   -2.9077 H        1 ZINC000085205451    0.0800
37     H37     6.8884    3.7797   -4.1834 H        1 ZINC000085205451    0.1300
38     H38     8.7058    2.2891   -0.5404 H        1 ZINC000085205451    0.0900
39     H39     7.9818    3.9200   -0.5811 H        1 ZINC000085205451    0.1000
40     H40     6.4935    1.2732   -0.8692 H        1 ZINC000085205451    0.0700
41     H41     6.4693    2.3311    0.5550 H        1 ZINC000085205451    0.0800
42     H42     4.6544    1.2850    0.8114 H        1 ZINC000085205451    0.0700
43     H43     3.8163    2.8363    1.0088 H        1 ZINC000085205451    0.0700
44     H44     2.5419    0.2162    0.0834 H        1 ZINC000085205451    0.0600
45     H45     2.3236    0.9950    1.6752 H        1 ZINC000085205451    0.0700
46     H46     2.4336    3.8438    0.4914 H        1 ZINC000085205451    0.0600
47     H47     0.7140    4.0542    0.0826 H        1 ZINC000085205451    0.0600
48     H48     1.1766    3.3698    1.6592 H        1 ZINC000085205451    0.0600
@<TRIPOS>BOND
1     1     2     3
2     1     27    1
3     2     3     1
4     3     25    1
5     3     4     1
6     3     5     1
7     4     28    1
8     5     6     1
9     5     29    1
10    5     30    1
11    6     7     1
12    6     31    1
13    6     32    1
14    7     8     1
15    7     25    1
16    7     9     1
17    9     10    1
18    9     21    1
19    9     11    1
20    11    12    1
21    11    33    1
22    11    34    1
23    12    13    1
24    12    35    1
25    12    36    1
26    13    19    1
27    13    14    2
28    14    15    1
29    14    37    1
30    15    16    2
31    15    17    1
32    17    18    1
33    17    38    1
34    17    39    1
35    18    19    1
36    18    40    1
37    18    41    1
38    19    20    1
39    19    21    1
40    21    22    1
41    21    23    1
42    23    24    1
43    23    42    1
44    23    43    1
45    24    25    1
46    24    44    1
47    24    45    1
48    25    26    1
49    26    46    1
50    26    47    1
51    26    48    1
@<TRIPOS>SUBSTRUCTURE
1   ZINC000085205451 1     RESIDUE    1   A     ZIN   1
