@<TRIPOS>MOLECULE
ZINC000095619101
65    67    1     0     0
SMALL
USER_CHARGES
@<TRIPOS>ATOM
1      C1      7.5541    1.6696   -4.0933 C.3      1 ZINC000095619101    0.0200
2      O2      6.7710    0.5224   -3.7573 O.3      1 ZINC000095619101   -0.3100
3      C3      5.4224    0.6343   -3.8926 C.ar     1 ZINC000095619101    0.1100
4      C4      4.8661    1.8197   -4.3443 C.ar     1 ZINC000095619101   -0.1700
5      C5      3.4946    1.9316   -4.4818 C.ar     1 ZINC000095619101   -0.1100
6      C6      2.6762    0.8628   -4.1690 C.ar     1 ZINC000095619101   -0.1200
7      C7      3.2251   -0.3233   -3.7172 C.ar     1 ZINC000095619101   -0.1700
8      C8      4.5985   -0.4441   -3.5831 C.ar     1 ZINC000095619101    0.0900
9      O9      5.1400   -1.6099   -3.1389 O.3      1 ZINC000095619101   -0.2900
10     C10     4.2330   -2.6697   -2.8286 C.3      1 ZINC000095619101    0.0300
11     C11     5.0204   -3.8906   -2.3487 C.3      1 ZINC000095619101    0.0900
12     H12     5.6584   -3.6056   -1.5121 H        1 ZINC000095619101    0.1300
13     O13     5.8293   -4.3860   -3.4174 O.3      1 ZINC000095619101   -0.5400
14     C14     4.0461   -4.9811   -1.8986 C.3      1 ZINC000095619101   -0.0400
15     N15     4.7995   -6.1053   -1.3270 N.4      1 ZINC000095619101   -0.3800
16     H16     5.4825   -6.4271   -1.9963 H        1 ZINC000095619101    0.4300
17     C17     3.8752   -7.2007   -1.0059 C.3      1 ZINC000095619101    0.0000
18     C18     4.6619   -8.3792   -0.4278 C.3      1 ZINC000095619101    0.0300
19     N19     5.3722   -7.9436    0.7829 N.3      1 ZINC000095619101   -0.5200
20     C20     6.0953   -9.0632    1.4005 C.3      1 ZINC000095619101    0.0400
21     C21     6.6037   -8.6460    2.7565 C.2      1 ZINC000095619101    0.5100
22     O22     6.3850   -7.5261    3.1679 O.2      1 ZINC000095619101   -0.5000
23     N23     7.3012   -9.5172    3.5120 N.am     1 ZINC000095619101   -0.6700
24     C24     7.8574   -9.1009    4.7266 C.ar     1 ZINC000095619101    0.1200
25     C25     9.2257   -9.2080    4.9383 C.ar     1 ZINC000095619101   -0.0900
26     C26    10.1140   -9.7724    3.8597 C.3      1 ZINC000095619101   -0.1100
27     C27     9.7716   -8.7962    6.1383 C.ar     1 ZINC000095619101   -0.1200
28     C28     8.9572   -8.2782    7.1285 C.ar     1 ZINC000095619101   -0.1100
29     C29     7.5943   -8.1706    6.9210 C.ar     1 ZINC000095619101   -0.1200
30     C30     7.0431   -8.5745    5.7207 C.ar     1 ZINC000095619101   -0.0600
31     C31     5.5577   -8.4570    5.4954 C.3      1 ZINC000095619101   -0.1000
32     C32     6.2832   -6.8303    0.4816 C.3      1 ZINC000095619101    0.0200
33     C33     5.4828   -5.6647   -0.1037 C.3      1 ZINC000095619101   -0.0100
34     H34     8.6100    1.4460   -3.9409 H        1 ZINC000095619101    0.1000
35     H35     7.3852    1.9315   -5.1378 H        1 ZINC000095619101    0.0600
36     H36     7.2643    2.5062   -3.4576 H        1 ZINC000095619101    0.0600
37     H37     5.5034    2.6567   -4.5887 H        1 ZINC000095619101    0.1400
38     H38     3.0621    2.8564   -4.8340 H        1 ZINC000095619101    0.1300
39     H39     1.6055    0.9542   -4.2773 H        1 ZINC000095619101    0.1300
40     H40     2.5833   -1.1568   -3.4728 H        1 ZINC000095619101    0.1300
41     H41     3.5506   -2.3456   -2.0428 H        1 ZINC000095619101    0.0800
42     H42     3.6627   -2.9324   -3.7195 H        1 ZINC000095619101    0.0800
43     H43     5.3267   -4.6591   -4.1971 H        1 ZINC000095619101    0.3900
44     H44     3.3703   -4.5762   -1.1454 H        1 ZINC000095619101    0.1500
45     H45     3.4689   -5.3288   -2.7554 H        1 ZINC000095619101    0.1400
46     H46     3.1450   -6.8570   -0.2732 H        1 ZINC000095619101    0.1400
47     H47     3.3590   -7.5180   -1.9119 H        1 ZINC000095619101    0.1400
48     H48     3.9745   -9.1866   -0.1756 H        1 ZINC000095619101    0.1300
49     H49     5.3828   -8.7319   -1.1653 H        1 ZINC000095619101    0.0600
50     H50     5.4226   -9.9137    1.5106 H        1 ZINC000095619101    0.1200
51     H51     6.9370   -9.3452    0.7680 H        1 ZINC000095619101    0.0800
52     H52     7.4177  -10.4328    3.2138 H        1 ZINC000095619101    0.4100
53     H53    10.5459   -8.9562    3.2806 H        1 ZINC000095619101    0.0700
54     H54    10.9132  -10.3567    4.3160 H        1 ZINC000095619101    0.0700
55     H55     9.5256  -10.4127    3.2025 H        1 ZINC000095619101    0.0600
56     H56    10.8357   -8.8792    6.3036 H        1 ZINC000095619101    0.1300
57     H57     9.3865   -7.9572    8.0662 H        1 ZINC000095619101    0.1300
58     H58     6.9608   -7.7663    7.6966 H        1 ZINC000095619101    0.1300
59     H59     5.3173   -7.4419    5.1792 H        1 ZINC000095619101    0.0800
60     H60     5.2508   -9.1607    4.7217 H        1 ZINC000095619101    0.0500
61     H61     5.0305   -8.6833    6.4222 H        1 ZINC000095619101    0.0600
62     H62     6.7786   -6.5077    1.3974 H        1 ZINC000095619101    0.1400
63     H63     7.0308   -7.1575   -0.2409 H        1 ZINC000095619101    0.0600
64     H64     6.1585   -4.8431   -0.3412 H        1 ZINC000095619101    0.1400
65     H65     4.7445   -5.3290    0.6245 H        1 ZINC000095619101    0.1400
@<TRIPOS>BOND
1     1     2     1
2     1     34    1
3     1     35    1
4     1     36    1
5     2     3     1
6     3     8     ar
7     3     4     ar
8     4     5     ar
9     4     37    1
10    5     6     ar
11    5     38    1
12    6     7     ar
13    6     39    1
14    7     8     ar
15    7     40    1
16    8     9     1
17    9     10    1
18    10    11    1
19    10    41    1
20    10    42    1
21    11    12    1
22    11    13    1
23    11    14    1
24    13    43    1
25    14    15    1
26    14    44    1
27    14    45    1
28    15    16    1
29    15    33    1
30    15    17    1
31    17    18    1
32    17    46    1
33    17    47    1
34    18    19    1
35    18    48    1
36    18    49    1
37    19    20    1
38    19    32    1
39    20    21    1
40    20    50    1
41    20    51    1
42    21    22    2
43    21    23    am
44    23    24    1
45    23    52    1
46    24    30    ar
47    24    25    ar
48    25    26    1
49    25    27    ar
50    26    53    1
51    26    54    1
52    26    55    1
53    27    28    ar
54    27    56    1
55    28    29    ar
56    28    57    1
57    29    30    ar
58    29    58    1
59    30    31    1
60    31    59    1
61    31    60    1
62    31    61    1
63    32    33    1
64    32    62    1
65    32    63    1
66    33    64    1
67    33    65    1
@<TRIPOS>SUBSTRUCTURE
1   ZINC000095619101 1     RESIDUE    1   A     ZIN   1
