@<TRIPOS>MOLECULE
ZINC000100004343
68    71    1     0     0
SMALL
USER_CHARGES
@<TRIPOS>ATOM
1      C1     -1.5971    1.7818    0.9680 C.3      1 ZINC000100004343   -0.1600
2      C2     -1.8395    0.3414    1.4233 C.3      1 ZINC000100004343   -0.1200
3      C3     -1.6606   -0.6059    0.2351 C.3      1 ZINC000100004343   -0.1500
4      C4     -1.9029   -2.0464    0.6904 C.3      1 ZINC000100004343   -0.0300
5      N5     -1.7312   -2.9559   -0.4504 N.4      1 ZINC000100004343   -0.3800
6      H6     -2.3647   -2.6913   -1.1898 H        1 ZINC000100004343    0.4200
7      C7     -0.3479   -2.8739   -0.9380 C.3      1 ZINC000100004343   -0.0200
8      C8     -0.1796   -3.7909   -2.1512 C.3      1 ZINC000100004343   -0.1500
9      C9      1.2198   -3.6048   -2.7409 C.3      1 ZINC000100004343   -0.1200
10     C10     1.3881   -4.5217   -3.9541 C.3      1 ZINC000100004343   -0.1600
11     C11    -2.0204   -4.3325   -0.0270 C.3      1 ZINC000100004343   -0.0500
12     C12    -3.5106   -4.4650    0.2935 C.3      1 ZINC000100004343    0.1400
13     H13    -4.0971   -4.0636   -0.5329 H        1 ZINC000100004343    0.1300
14     O14    -3.8078   -3.7367    1.4865 O.3      1 ZINC000100004343   -0.5400
15     C15    -3.8540   -5.9187    0.4937 C.ar     1 ZINC000100004343   -0.1000
16     C16    -3.8659   -6.4558    1.7640 C.ar     1 ZINC000100004343   -0.0900
17     C17    -4.1803   -7.7920    1.9605 C.ar     1 ZINC000100004343   -0.0200
18     Cl18   -4.1905   -8.4496    3.5671 Cl       1 ZINC000100004343   -0.0400
19     C19    -4.4858   -8.6022    0.8847 C.ar     1 ZINC000100004343   -0.0800
20     C20    -4.4784   -8.0752   -0.4052 C.ar     1 ZINC000100004343   -0.0300
21     C21    -4.1652   -6.7191   -0.6049 C.ar     1 ZINC000100004343   -0.0400
22     C22    -4.2301   -6.4273   -2.0526 C.ar     1 ZINC000100004343   -0.0600
23     C23    -4.0114   -5.2569   -2.7774 C.ar     1 ZINC000100004343   -0.0900
24     C24    -4.1419   -5.2614   -4.1510 C.ar     1 ZINC000100004343   -0.1000
25     C25    -4.4901   -6.4239   -4.8211 C.ar     1 ZINC000100004343   -0.0200
26     Cl26   -4.6501   -6.4094   -6.5496 Cl       1 ZINC000100004343   -0.0400
27     C27    -4.7101   -7.5939   -4.1204 C.ar     1 ZINC000100004343   -0.0800
28     C28    -4.5829   -7.6064   -2.7333 C.ar     1 ZINC000100004343   -0.0300
29     C29    -4.7551   -8.6752   -1.7272 C.2      1 ZINC000100004343   -0.0800
30     C30    -5.1002   -9.9664   -1.9718 C.2      1 ZINC000100004343    0.0000
31     C31    -5.5194  -10.8371   -0.8649 C.ar     1 ZINC000100004343   -0.0900
32     C32    -6.4018  -10.3590    0.1106 C.ar     1 ZINC000100004343   -0.0800
33     C33    -6.7908  -11.1818    1.1456 C.ar     1 ZINC000100004343   -0.1200
34     C34    -6.3106  -12.4793    1.2217 C.ar     1 ZINC000100004343   -0.0200
35     Cl35   -6.8068  -13.5083    2.5288 Cl       1 ZINC000100004343   -0.0500
36     C36    -5.4367  -12.9597    0.2598 C.ar     1 ZINC000100004343   -0.1100
37     C37    -5.0428  -12.1506   -0.7840 C.ar     1 ZINC000100004343   -0.0800
38     H38    -1.7246    2.4567    1.8145 H        1 ZINC000100004343    0.0700
39     H39    -0.5831    1.8742    0.5792 H        1 ZINC000100004343    0.0600
40     H40    -2.3111    2.0408    0.1862 H        1 ZINC000100004343    0.0600
41     H41    -1.1255    0.0824    2.2051 H        1 ZINC000100004343    0.0700
42     H42    -2.8536    0.2489    1.8121 H        1 ZINC000100004343    0.0700
43     H43    -2.3746   -0.3469   -0.5467 H        1 ZINC000100004343    0.0800
44     H44    -0.6465   -0.5135   -0.1537 H        1 ZINC000100004343    0.0800
45     H45    -1.1890   -2.3053    1.4722 H        1 ZINC000100004343    0.1300
46     H46    -2.9170   -2.1388    1.0792 H        1 ZINC000100004343    0.1600
47     H47    -0.1242   -1.8465   -1.2253 H        1 ZINC000100004343    0.1400
48     H48     0.3349   -3.1873   -0.1482 H        1 ZINC000100004343    0.1300
49     H49    -0.3091   -4.8284   -1.8431 H        1 ZINC000100004343    0.0900
50     H50    -0.9273   -3.5392   -2.9033 H        1 ZINC000100004343    0.0900
51     H51     1.3493   -2.5672   -3.0490 H        1 ZINC000100004343    0.0700
52     H52     1.9675   -3.8565   -1.9888 H        1 ZINC000100004343    0.0700
53     H53     1.2587   -5.5593   -3.6461 H        1 ZINC000100004343    0.0600
54     H54     0.6404   -4.2701   -4.7062 H        1 ZINC000100004343    0.0600
55     H55     2.3851   -4.3891   -4.3742 H        1 ZINC000100004343    0.0700
56     H56    -1.7586   -5.0220   -0.8295 H        1 ZINC000100004343    0.1500
57     H57    -1.4352   -4.5699    0.8614 H        1 ZINC000100004343    0.1400
58     H58    -3.3205   -4.0405    2.2646 H        1 ZINC000100004343    0.3900
59     H59    -3.6281   -5.8310    2.6122 H        1 ZINC000100004343    0.1400
60     H60    -4.7298   -9.6423    1.0428 H        1 ZINC000100004343    0.1500
61     H61    -3.7401   -4.3464   -2.2638 H        1 ZINC000100004343    0.1200
62     H62    -3.9719   -4.3521   -4.7084 H        1 ZINC000100004343    0.1400
63     H63    -4.9811   -8.4970   -4.6470 H        1 ZINC000100004343    0.1400
64     H64    -5.0663  -10.3527   -2.9797 H        1 ZINC000100004343    0.1500
65     H65    -6.7766   -9.3478    0.0527 H        1 ZINC000100004343    0.1400
66     H66    -7.4713  -10.8142    1.8993 H        1 ZINC000100004343    0.1400
67     H67    -5.0664  -13.9720    0.3260 H        1 ZINC000100004343    0.1400
68     H68    -4.3619  -12.5266   -1.5333 H        1 ZINC000100004343    0.1400
@<TRIPOS>BOND
1     1     2     1
2     1     38    1
3     1     39    1
4     1     40    1
5     2     3     1
6     2     41    1
7     2     42    1
8     3     4     1
9     3     43    1
10    3     44    1
11    4     5     1
12    4     45    1
13    4     46    1
14    5     6     1
15    5     7     1
16    5     11    1
17    7     8     1
18    7     47    1
19    7     48    1
20    8     9     1
21    8     49    1
22    8     50    1
23    9     10    1
24    9     51    1
25    9     52    1
26    10    53    1
27    10    54    1
28    10    55    1
29    11    12    1
30    11    56    1
31    11    57    1
32    12    13    1
33    12    14    1
34    12    15    1
35    14    58    1
36    15    21    ar
37    15    16    ar
38    16    17    ar
39    16    59    1
40    17    18    1
41    17    19    ar
42    19    20    ar
43    19    60    1
44    20    29    1
45    20    21    ar
46    21    22    1
47    22    28    ar
48    22    23    ar
49    23    24    ar
50    23    61    1
51    24    25    ar
52    24    62    1
53    25    26    1
54    25    27    ar
55    27    28    ar
56    27    63    1
57    28    29    1
58    29    30    2
59    30    31    1
60    30    64    1
61    31    37    ar
62    31    32    ar
63    32    33    ar
64    32    65    1
65    33    34    ar
66    33    66    1
67    34    35    1
68    34    36    ar
69    36    37    ar
70    36    67    1
71    37    68    1
@<TRIPOS>SUBSTRUCTURE
1   ZINC000100004343 1     RESIDUE    1   A     ZIN   1
