@<TRIPOS>MOLECULE
ZINC000000391812
26    27    1     0     0
SMALL
USER_CHARGES
@<TRIPOS>ATOM
1      C1     -0.0178    1.4648    0.0101 C.3      1 ZINC000000391812    0.0100
2      N2      0.0021   -0.0041    0.0020 N.3      1 ZINC000000391812   -0.5100
3      C3     -1.3720   -0.5558    0.1230 C.3      1 ZINC000000391812    0.0300
4      C4     -1.1684   -1.9979    0.6351 C.3      1 ZINC000000391812   -0.1300
5      C5      0.2040   -1.9832    1.3394 C.3      1 ZINC000000391812   -0.1200
6      C6      0.7141   -0.5334    1.1936 C.3      1 ZINC000000391812    0.1000
7      H7      0.4599    0.0499    2.0786 H        1 ZINC000000391812    0.0600
8      C8      2.2040   -0.5208    0.9672 C.ar     1 ZINC000000391812   -0.1300
9      C9      3.0711   -0.2583    2.0165 C.ar     1 ZINC000000391812   -0.0700
10     C10     4.4343   -0.2575    1.7617 C.ar     1 ZINC000000391812   -0.1700
11     C11     4.8798   -0.5166    0.4796 C.ar     1 ZINC000000391812    0.0900
12     N12     4.0256   -0.7624   -0.4947 N.ar     1 ZINC000000391812   -0.4900
13     C13     2.7234   -0.7765   -0.2880 C.ar     1 ZINC000000391812    0.1300
14     H14     1.0047    1.8421    0.0024 H        1 ZINC000000391812    0.0700
15     H15    -0.5450    1.8259   -0.8730 H        1 ZINC000000391812    0.0700
16     H16    -0.5280    1.8163    0.9069 H        1 ZINC000000391812    0.0300
17     H17    -1.9526    0.0240    0.8404 H        1 ZINC000000391812    0.0500
18     H18    -1.8654   -0.5637   -0.8489 H        1 ZINC000000391812    0.0900
19     H19    -1.9542   -2.2629    1.3425 H        1 ZINC000000391812    0.0700
20     H20    -1.1578   -2.6983   -0.2001 H        1 ZINC000000391812    0.0800
21     H21     0.0918   -2.2409    2.3925 H        1 ZINC000000391812    0.0700
22     H22     0.8881   -2.6763    0.8500 H        1 ZINC000000391812    0.0800
23     H23     2.6941   -0.0587    3.0086 H        1 ZINC000000391812    0.1300
24     H24     5.1388   -0.0566    2.5553 H        1 ZINC000000391812    0.1300
25     H25     5.9398   -0.5175    0.2729 H        1 ZINC000000391812    0.1500
26     H26     2.0545   -0.9817   -1.1107 H        1 ZINC000000391812    0.1600
@<TRIPOS>BOND
1     1     2     1
2     1     14    1
3     1     15    1
4     1     16    1
5     2     6     1
6     2     3     1
7     3     4     1
8     3     17    1
9     3     18    1
10    4     5     1
11    4     19    1
12    4     20    1
13    5     6     1
14    5     21    1
15    5     22    1
16    6     7     1
17    6     8     1
18    8     13    ar
19    8     9     ar
20    9     10    ar
21    9     23    1
22    10    11    ar
23    10    24    1
24    11    12    ar
25    11    25    1
26    12    13    ar
27    13    26    1
@<TRIPOS>SUBSTRUCTURE
1   ZINC000000391812 1     RESIDUE    1   A     ZIN   1
