@<TRIPOS>MOLECULE
ZINC000068153186
55    58    1     0     0
SMALL
USER_CHARGES
@<TRIPOS>ATOM
1      C1     -0.0945    1.6419    0.0325 C.3      1 ZINC000068153186   -0.1400
2      C2      0.3829    0.2237    0.3515 C.3      1 ZINC000068153186    0.0100
3      C3      1.5221    0.2863    1.3708 C.3      1 ZINC000068153186   -0.1400
4      C4     -0.7777   -0.5863    0.9327 C.3      1 ZINC000068153186   -0.1600
5      C5      0.8739   -0.4368   -0.9109 C.2      1 ZINC000068153186    0.0700
6      N6      1.8472    0.0007   -1.6339 N.2      1 ZINC000068153186   -0.4600
7      C7      2.1604   -0.6915   -2.7148 C.2      1 ZINC000068153186    0.1600
8      C8      3.2546   -0.3071   -3.6363 C.ar     1 ZINC000068153186   -0.0200
9      C9      2.9790   -0.0418   -4.9779 C.ar     1 ZINC000068153186   -0.0400
10     C10     4.0000    0.3157   -5.8351 C.ar     1 ZINC000068153186   -0.1100
11     C11     5.2983    0.4127   -5.3697 C.ar     1 ZINC000068153186   -0.1300
12     C12     5.5843    0.1513   -4.0357 C.ar     1 ZINC000068153186    0.1000
13     N13     6.8992    0.2511   -3.5694 N.am     1 ZINC000068153186   -1.0500
14     S14     7.9057    1.4188   -4.1742 S.o2     1 ZINC000068153186    2.7000
15     O15     9.1188    1.3221   -3.4404 O.2      1 ZINC000068153186   -0.9300
16     O16     7.8427    1.3092   -5.5895 O.2      1 ZINC000068153186   -0.9300
17     C17     7.1992    2.9799   -3.7640 C.ar     1 ZINC000068153186   -0.7700
18     C18     6.3052    3.5847   -4.6307 C.ar     1 ZINC000068153186    0.2300
19     F19     5.9736    2.9780   -5.7913 F        1 ZINC000068153186   -0.1000
20     C20     5.7506    4.8116   -4.3073 C.ar     1 ZINC000068153186   -0.1800
21     C21     6.0893    5.4323   -3.1198 C.ar     1 ZINC000068153186    0.0000
22     C22     6.9818    4.8294   -2.2538 C.ar     1 ZINC000068153186   -0.1800
23     C23     7.5333    3.5998   -2.5724 C.ar     1 ZINC000068153186    0.2300
24     F24     8.4054    3.0105   -1.7254 F        1 ZINC000068153186   -0.1000
25     C25     4.5633   -0.2036   -3.1641 C.ar     1 ZINC000068153186    0.1200
26     F26     4.8378   -0.4581   -1.8660 F        1 ZINC000068153186   -0.1300
27     C27     1.3736   -1.8028   -2.9019 C.2      1 ZINC000068153186   -0.2100
28     C28     1.4801   -2.7673   -4.0108 C.ar     1 ZINC000068153186    0.3000
29     C29     0.5341   -3.7909   -4.1578 C.ar     1 ZINC000068153186   -0.2800
30     C30     0.6760   -4.6707   -5.2135 C.ar     1 ZINC000068153186    0.2000
31     N31     1.6931   -4.5229   -6.0492 N.ar     1 ZINC000068153186   -0.5700
32     C32     2.5743   -3.5459   -5.8878 C.ar     1 ZINC000068153186    0.5800
33     N33     3.6220   -3.4283   -6.7848 N.pl3    1 ZINC000068153186   -0.8200
34     N34     2.4759   -2.6771   -4.8948 N.ar     1 ZINC000068153186   -0.5500
35     S35     0.2200   -1.8703   -1.5719 S.3      1 ZINC000068153186    0.2000
36     H36     0.7323    2.2191   -0.3816 H        1 ZINC000068153186    0.0700
37     H37    -0.9061    1.5974   -0.6937 H        1 ZINC000068153186    0.0600
38     H38    -0.4497    2.1197    0.9456 H        1 ZINC000068153186    0.0700
39     H39     1.1670    0.7640    2.2838 H        1 ZINC000068153186    0.0700
40     H40     1.8622   -0.7241    1.5980 H        1 ZINC000068153186    0.0600
41     H41     2.3489    0.8634    0.9567 H        1 ZINC000068153186    0.0700
42     H42    -1.5893   -0.6309    0.2066 H        1 ZINC000068153186    0.0600
43     H43    -0.4376   -1.5967    1.1600 H        1 ZINC000068153186    0.0600
44     H44    -1.1329   -0.1086    1.8458 H        1 ZINC000068153186    0.0800
45     H45     1.9665   -0.1166   -5.3460 H        1 ZINC000068153186    0.1300
46     H46     3.7839    0.5202   -6.8733 H        1 ZINC000068153186    0.1400
47     H47     6.0928    0.6923   -6.0457 H        1 ZINC000068153186    0.1800
48     H48     7.2215   -0.3637   -2.8919 H        1 ZINC000068153186    0.4300
49     H49     5.0534    5.2839   -4.9835 H        1 ZINC000068153186    0.1600
50     H50     5.6565    6.3894   -2.8686 H        1 ZINC000068153186    0.1600
51     H51     7.2460    5.3155   -1.3262 H        1 ZINC000068153186    0.1600
52     H52    -0.2860   -3.8897   -3.4621 H        1 ZINC000068153186    0.1400
53     H53    -0.0350   -5.4711   -5.3558 H        1 ZINC000068153186    0.1700
54     H54     3.6527   -3.9948   -7.5716 H        1 ZINC000068153186    0.4200
55     H55     4.3255   -2.7795   -6.6265 H        1 ZINC000068153186    0.4200
@<TRIPOS>BOND
1     1     2     1
2     1     36    1
3     1     37    1
4     1     38    1
5     2     3     1
6     2     4     1
7     2     5     1
8     3     39    1
9     3     40    1
10    3     41    1
11    4     42    1
12    4     43    1
13    4     44    1
14    5     35    1
15    5     6     2
16    6     7     1
17    7     8     1
18    7     27    2
19    8     25    ar
20    8     9     ar
21    9     10    ar
22    9     45    1
23    10    11    ar
24    10    46    1
25    11    12    ar
26    11    47    1
27    12    13    1
28    12    25    ar
29    13    14    am
30    13    48    1
31    14    15    2
32    14    16    2
33    14    17    1
34    17    23    ar
35    17    18    ar
36    18    19    1
37    18    20    ar
38    20    21    ar
39    20    49    1
40    21    22    ar
41    21    50    1
42    22    23    ar
43    22    51    1
44    23    24    1
45    25    26    1
46    27    28    1
47    27    35    1
48    28    34    ar
49    28    29    ar
50    29    30    ar
51    29    52    1
52    30    31    ar
53    30    53    1
54    31    32    ar
55    32    33    1
56    32    34    ar
57    33    54    1
58    33    55    1
@<TRIPOS>SUBSTRUCTURE
1   ZINC000068153186 1     RESIDUE    1   A     ZIN   1
