@<TRIPOS>MOLECULE
ZINC000019632718
56    57    1     0     0
SMALL
USER_CHARGES
@<TRIPOS>ATOM
1      C1     -3.9493   -5.7244   -0.0794 C.3      1 ZINC000019632718    0.0300
2      O2     -2.6034   -5.3117    0.1663 O.3      1 ZINC000019632718   -0.3900
3      C3     -2.4172   -3.8950    0.1474 C.3      1 ZINC000019632718    0.0600
4      C4     -0.9472   -3.5702    0.4207 C.3      1 ZINC000019632718    0.0600
5      O5     -0.1419   -4.0716   -0.6480 O.3      1 ZINC000019632718   -0.3400
6      C6      1.1890   -3.8666   -0.5604 C.2      1 ZINC000019632718    0.5300
7      O7      1.6522   -3.2776    0.3984 O.2      1 ZINC000019632718   -0.4900
8      C8      2.0455   -4.3363   -1.5830 C.2      1 ZINC000019632718   -0.2300
9      C9      2.3073   -5.6520   -1.6688 C.2      1 ZINC000019632718    0.1900
10     C10     1.6789   -6.6018   -0.6819 C.3      1 ZINC000019632718   -0.1300
11     N11     3.1370   -6.1395   -2.6414 N.pl3    1 ZINC000019632718   -0.6300
12     C12     3.9887   -5.3001   -3.3064 C.2      1 ZINC000019632718    0.2400
13     C13     5.1555   -5.8743   -4.0680 C.3      1 ZINC000019632718   -0.1200
14     C14     3.7972   -3.9698   -3.2891 C.2      1 ZINC000019632718   -0.2600
15     C15     4.7015   -3.1316   -3.9815 C.2      1 ZINC000019632718    0.5200
16     O16     5.6407   -3.6165   -4.5845 O.2      1 ZINC000019632718   -0.5200
17     O17     4.5229   -1.7940   -3.9737 O.3      1 ZINC000019632718   -0.3400
18     C18     5.4745   -1.0082   -4.6941 C.3      1 ZINC000019632718    0.0800
19     C19     4.7977    0.2611   -5.2154 C.3      1 ZINC000019632718   -0.1500
20     C20     6.6283   -0.6260   -3.7648 C.3      1 ZINC000019632718   -0.1700
21     C21     2.6383   -3.3548   -2.5537 C.3      1 ZINC000019632718    0.0900
22     H22     2.9855   -2.4797   -2.0043 H        1 ZINC000019632718    0.1000
23     C23     1.5880   -2.9316   -3.5481 C.ar     1 ZINC000019632718   -0.0700
24     C24     0.9983   -3.8713   -4.3724 C.ar     1 ZINC000019632718   -0.0500
25     C25     0.0346   -3.4831   -5.2847 C.ar     1 ZINC000019632718   -0.1200
26     C26    -0.3393   -2.1554   -5.3720 C.ar     1 ZINC000019632718   -0.0600
27     C27     0.2499   -1.2156   -4.5468 C.ar     1 ZINC000019632718   -0.0400
28     N28    -0.1502    0.2064   -4.6407 N.pl3    1 ZINC000019632718    0.0300
29     O29    -0.9985    0.5486   -5.4449 O.2      1 ZINC000019632718   -0.1600
30     O30     0.3689    1.0344   -3.9137 O.2      1 ZINC000019632718   -0.1600
31     C31     1.2102   -1.6043   -3.6318 C.ar     1 ZINC000019632718   -0.0400
32     H32    -4.2638   -5.3717   -1.0616 H        1 ZINC000019632718    0.0400
33     H33    -4.0071   -6.8124   -0.0484 H        1 ZINC000019632718    0.0900
34     H34    -4.6034   -5.3038    0.6843 H        1 ZINC000019632718    0.0400
35     H35    -2.6999   -3.5044   -0.8301 H        1 ZINC000019632718    0.0600
36     H36    -3.0396   -3.4365    0.9159 H        1 ZINC000019632718    0.0700
37     H37    -0.8215   -2.4900    0.4945 H        1 ZINC000019632718    0.0900
38     H38    -0.6400   -4.0365    1.3568 H        1 ZINC000019632718    0.0800
39     H39     0.7014   -6.9137   -1.0497 H        1 ZINC000019632718    0.1000
40     H40     2.3180   -7.4766   -0.5620 H        1 ZINC000019632718    0.0800
41     H41     1.5627   -6.1022    0.2799 H        1 ZINC000019632718    0.0900
42     H42     3.1216   -7.0843   -2.8602 H        1 ZINC000019632718    0.4200
43     H43     5.1530   -6.9601   -3.9722 H        1 ZINC000019632718    0.0700
44     H44     5.0718   -5.6022   -5.1202 H        1 ZINC000019632718    0.1000
45     H45     6.0855   -5.4759   -3.6626 H        1 ZINC000019632718    0.1100
46     H46     5.8606   -1.5853   -5.5343 H        1 ZINC000019632718    0.0800
47     H47     4.4116    0.8382   -4.3752 H        1 ZINC000019632718    0.0700
48     H48     5.5235    0.8605   -5.7649 H        1 ZINC000019632718    0.0800
49     H49     3.9757   -0.0112   -5.8774 H        1 ZINC000019632718    0.0600
50     H50     7.3542   -0.0266   -4.3143 H        1 ZINC000019632718    0.0700
51     H51     6.2422   -0.0489   -2.9246 H        1 ZINC000019632718    0.0700
52     H52     7.1106   -1.5302   -3.3935 H        1 ZINC000019632718    0.0600
53     H53     1.2905   -4.9088   -4.3042 H        1 ZINC000019632718    0.1300
54     H54    -0.4256   -4.2173   -5.9293 H        1 ZINC000019632718    0.1500
55     H55    -1.0915   -1.8521   -6.0851 H        1 ZINC000019632718    0.1500
56     H56     1.6705   -0.8701   -2.9872 H        1 ZINC000019632718    0.1500
@<TRIPOS>BOND
1     1     2     1
2     1     32    1
3     1     33    1
4     1     34    1
5     2     3     1
6     3     4     1
7     3     35    1
8     3     36    1
9     4     5     1
10    4     37    1
11    4     38    1
12    5     6     1
13    6     7     2
14    6     8     1
15    8     21    1
16    8     9     2
17    9     10    1
18    9     11    1
19    10    39    1
20    10    40    1
21    10    41    1
22    11    12    1
23    11    42    1
24    12    13    1
25    12    14    2
26    13    43    1
27    13    44    1
28    13    45    1
29    14    15    1
30    14    21    1
31    15    16    2
32    15    17    1
33    17    18    1
34    18    19    1
35    18    20    1
36    18    46    1
37    19    47    1
38    19    48    1
39    19    49    1
40    20    50    1
41    20    51    1
42    20    52    1
43    21    22    1
44    21    23    1
45    23    31    ar
46    23    24    ar
47    24    25    ar
48    24    53    1
49    25    26    ar
50    25    54    1
51    26    27    ar
52    26    55    1
53    27    28    1
54    27    31    ar
55    28    29    2
56    28    30    2
57    31    56    1
@<TRIPOS>SUBSTRUCTURE
1   ZINC000019632718 1     RESIDUE    1   A     ZIN   1
