@<TRIPOS>MOLECULE
ZINC000004099009
78    85    1     0     0
SMALL
USER_CHARGES
@<TRIPOS>ATOM
1      C1     -0.1712    1.1991   -1.3564 C.3      1 ZINC000004099009    0.0200
2      O2     -0.1012   -0.1556   -0.9071 O.3      1 ZINC000004099009   -0.3000
3      C3     -1.2533   -0.7144   -0.4489 C.ar     1 ZINC000004099009    0.1500
4      C4     -2.4267    0.0243   -0.4378 C.ar     1 ZINC000004099009   -0.2100
5      C5     -3.5982   -0.5428    0.0277 C.ar     1 ZINC000004099009   -0.0200
6      C6     -4.8712    0.2637    0.0379 C.3      1 ZINC000004099009    0.0200
7      H7     -4.6350    1.3241    0.1267 H        1 ZINC000004099009    0.1100
8      C8     -5.7434   -0.1678    1.2040 C.ar     1 ZINC000004099009   -0.0400
9      C9     -5.3812    0.3278    2.4577 C.ar     1 ZINC000004099009   -0.0900
10     C10    -6.1558   -0.0323    3.5476 C.ar     1 ZINC000004099009    0.0500
11     C11    -7.2717   -0.8686    3.3920 C.ar     1 ZINC000004099009    0.0400
12     C12    -7.6231   -1.3589    2.1456 C.ar     1 ZINC000004099009   -0.0900
13     C13    -6.8332   -0.9979    1.0526 C.ar     1 ZINC000004099009   -0.1100
14     C14    -7.2382   -1.5874   -0.2870 C.3      1 ZINC000004099009    0.1500
15     H15    -7.5255   -2.6310   -0.1588 H        1 ZINC000004099009    0.1000
16     O16    -8.3339   -0.8476   -0.8293 O.3      1 ZINC000004099009   -0.3500
17     C17    -9.6175   -1.3446   -0.4455 C.3      1 ZINC000004099009    0.2200
18     H18    -9.6767   -1.3918    0.6419 H        1 ZINC000004099009    0.0800
19     O19    -9.8009   -2.6562   -0.9886 O.3      1 ZINC000004099009   -0.3800
20     C20   -11.0544   -3.2407   -0.6424 C.3      1 ZINC000004099009    0.0400
21     H21   -11.1523   -3.2729    0.4428 H        1 ZINC000004099009    0.0900
22     C22   -11.1802   -4.6564   -1.2069 C.3      1 ZINC000004099009    0.0700
23     O23   -12.4959   -5.1429   -0.9137 O.3      1 ZINC000004099009   -0.3700
24     C24   -13.5529   -4.3255   -1.4186 C.3      1 ZINC000004099009    0.3200
25     H25   -13.5024   -4.3012   -2.5072 H        1 ZINC000004099009    0.0800
26     C26   -14.8781   -4.9028   -0.9926 C.2      1 ZINC000004099009   -0.2000
27     C27   -15.3194   -6.1236   -1.2995 C.2      1 ZINC000004099009   -0.1000
28     C28   -16.5702   -6.4355   -0.7952 C.2      1 ZINC000004099009   -0.1400
29     C29   -17.1447   -5.4681   -0.0788 C.2      1 ZINC000004099009   -0.2100
30     S30   -16.0763   -4.0727   -0.0083 S.3      1 ZINC000004099009    0.1700
31     O31   -13.4319   -2.9932   -0.9079 O.3      1 ZINC000004099009   -0.3600
32     C32   -12.1824   -2.3840   -1.2316 C.3      1 ZINC000004099009    0.0700
33     H33   -12.0739   -2.3305   -2.3149 H        1 ZINC000004099009    0.0900
34     C34   -12.0839   -0.9782   -0.6393 C.3      1 ZINC000004099009    0.1300
35     H35   -12.2092   -1.0268    0.4424 H        1 ZINC000004099009    0.0800
36     O36   -13.1001   -0.1470   -1.2036 O.3      1 ZINC000004099009   -0.5400
37     C37   -10.7039   -0.4057   -0.9729 C.3      1 ZINC000004099009    0.0600
38     H38   -10.6061   -0.3012   -2.0534 H        1 ZINC000004099009    0.0900
39     O39   -10.5587    0.8752   -0.3562 O.3      1 ZINC000004099009   -0.5500
40     C40    -6.0439   -1.4947   -1.2181 C.3      1 ZINC000004099009   -0.1400
41     H41    -5.2244   -2.1348   -0.8913 H        1 ZINC000004099009    0.1300
42     C42    -6.3607   -1.6825   -2.7101 C.3      1 ZINC000004099009    0.0700
43     O43    -5.3370   -0.8608   -3.3713 O.3      1 ZINC000004099009   -0.3400
44     C44    -4.8838    0.1041   -2.5370 C.2      1 ZINC000004099009    0.5000
45     O45    -4.0076    0.8985   -2.7838 O.2      1 ZINC000004099009   -0.4400
46     C46    -5.6444    0.0165   -1.2407 C.3      1 ZINC000004099009   -0.1500
47     H47    -6.5407    0.6354   -1.2839 H        1 ZINC000004099009    0.1400
48     O48    -7.8469   -1.0568    4.6014 O.3      1 ZINC000004099009   -0.3000
49     C49    -6.8540   -0.6542    5.5678 C.3      1 ZINC000004099009    0.2100
50     O50    -6.0359    0.2961    4.8540 O.3      1 ZINC000004099009   -0.3000
51     C51    -3.6054   -1.8478    0.4835 C.ar     1 ZINC000004099009   -0.2300
52     C52    -2.4361   -2.5932    0.4758 C.ar     1 ZINC000004099009    0.1400
53     O53    -2.4442   -3.8770    0.9244 O.3      1 ZINC000004099009   -0.3000
54     C54    -3.6926   -4.3939    1.3896 C.3      1 ZINC000004099009    0.0300
55     C55    -1.2573   -2.0285    0.0036 C.ar     1 ZINC000004099009    0.0400
56     O56    -0.1077   -2.7568   -0.0056 O.3      1 ZINC000004099009   -0.4700
57     H57     0.8137    1.5211   -1.6946 H        1 ZINC000004099009    0.1000
58     H58    -0.8803    1.2722   -2.1810 H        1 ZINC000004099009    0.0600
59     H59    -0.5003    1.8374   -0.5364 H        1 ZINC000004099009    0.0600
60     H60    -2.4253    1.0442   -0.7931 H        1 ZINC000004099009    0.1400
61     H61    -4.5229    0.9729    2.5740 H        1 ZINC000004099009    0.1500
62     H62    -8.4825   -2.0013    2.0227 H        1 ZINC000004099009    0.1400
63     H63   -11.0279   -4.6365   -2.2860 H        1 ZINC000004099009    0.0700
64     H64   -10.4369   -5.3045   -0.7424 H        1 ZINC000004099009    0.1200
65     H65   -14.7446   -6.8160   -1.8966 H        1 ZINC000004099009    0.1400
66     H66   -17.0452   -7.3898   -0.9690 H        1 ZINC000004099009    0.1400
67     H67   -18.1157   -5.5330    0.3894 H        1 ZINC000004099009    0.1700
68     H68   -13.0952    0.7610   -0.8710 H        1 ZINC000004099009    0.3900
69     H69    -9.7059    1.2986   -0.5251 H        1 ZINC000004099009    0.4000
70     H70    -6.2593   -2.7291   -2.9969 H        1 ZINC000004099009    0.1100
71     H71    -7.3599   -1.3133   -2.9414 H        1 ZINC000004099009    0.1000
72     H72    -7.3278   -0.1804    6.4276 H        1 ZINC000004099009    0.1400
73     H73    -6.2580   -1.5107    5.8827 H        1 ZINC000004099009    0.0900
74     H74    -4.5227   -2.2872    0.8464 H        1 ZINC000004099009    0.1400
75     H75    -4.0476   -3.7896    2.2245 H        1 ZINC000004099009    0.0600
76     H76    -4.4230   -4.3616    0.5812 H        1 ZINC000004099009    0.0600
77     H77    -3.5593   -5.4247    1.7180 H        1 ZINC000004099009    0.1000
78     H78     0.0361   -3.2544   -0.8222 H        1 ZINC000004099009    0.3800
@<TRIPOS>BOND
1     1     2     1
2     1     57    1
3     1     58    1
4     1     59    1
5     2     3     1
6     3     55    ar
7     3     4     ar
8     4     5     ar
9     4     60    1
10    5     6     1
11    5     51    ar
12    6     7     1
13    6     46    1
14    6     8     1
15    8     13    ar
16    8     9     ar
17    9     10    ar
18    9     61    1
19    10    50    1
20    10    11    ar
21    11    12    ar
22    11    48    1
23    12    13    ar
24    12    62    1
25    13    14    1
26    14    15    1
27    14    16    1
28    14    40    1
29    16    17    1
30    17    18    1
31    17    37    1
32    17    19    1
33    19    20    1
34    20    21    1
35    20    32    1
36    20    22    1
37    22    23    1
38    22    63    1
39    22    64    1
40    23    24    1
41    24    25    1
42    24    26    1
43    24    31    1
44    26    30    1
45    26    27    2
46    27    28    1
47    27    65    1
48    28    29    2
49    28    66    1
50    29    30    1
51    29    67    1
52    31    32    1
53    32    33    1
54    32    34    1
55    34    35    1
56    34    36    1
57    34    37    1
58    36    68    1
59    37    38    1
60    37    39    1
61    39    69    1
62    40    41    1
63    40    46    1
64    40    42    1
65    42    43    1
66    42    70    1
67    42    71    1
68    43    44    1
69    44    45    2
70    44    46    1
71    46    47    1
72    48    49    1
73    49    50    1
74    49    72    1
75    49    73    1
76    51    52    ar
77    51    74    1
78    52    53    1
79    52    55    ar
80    53    54    1
81    54    75    1
82    54    76    1
83    54    77    1
84    55    56    1
85    56    78    1
@<TRIPOS>SUBSTRUCTURE
1   ZINC000004099009 1     RESIDUE    1   A     ZIN   1
