@<TRIPOS>MOLECULE
ZINC000000020255
28    28    1     0     0
SMALL
USER_CHARGES
@<TRIPOS>ATOM
1      C1     -0.0187    1.5258    0.0104 C.3      1 ZINC000000020255   -0.1600
2      C2      0.0021   -0.0041    0.0020 C.3      1 ZINC000000020255   -0.0100
3      N3      0.7126   -0.4907    1.1921 N.4      1 ZINC000000020255   -0.6100
4      H4      0.2403   -0.1653    2.0223 H        1 ZINC000000020255    0.4300
5      H5      0.7262   -1.4996    1.1866 H        1 ZINC000000020255    0.4300
6      H6      1.6592   -0.1415    1.1850 H        1 ZINC000000020255    0.4100
7      C7      0.7182   -0.4975   -1.2568 C.3      1 ZINC000000020255   -0.0800
8      C8      2.1652   -0.0794   -1.2080 C.ar     1 ZINC000000020255   -0.1000
9      C9      2.5497    1.1373   -1.7390 C.ar     1 ZINC000000020255   -0.1000
10     C10     3.8763    1.5253   -1.6971 C.ar     1 ZINC000000020255   -0.1200
11     C11     4.8232    0.6940   -1.1216 C.ar     1 ZINC000000020255    0.0900
12     O12     6.1282    1.0742   -1.0792 O.3      1 ZINC000000020255   -0.4900
13     C13     4.4359   -0.5312   -0.5864 C.ar     1 ZINC000000020255    0.0900
14     O14     5.3618   -1.3506   -0.0198 O.3      1 ZINC000000020255   -0.4800
15     C15     3.1045   -0.9115   -0.6270 C.ar     1 ZINC000000020255   -0.1600
16     C16    -1.4117   -0.5257    0.0127 C.2      1 ZINC000000020255    0.5000
17     O17    -2.1751   -0.2365   -0.8929 O.co2    1 ZINC000000020255   -0.6300
18     O18    -1.7922   -1.2369    0.9270 O.co2    1 ZINC000000020255   -0.6700
19     H19     1.0039    1.9031    0.0027 H        1 ZINC000000020255    0.0700
20     H20    -0.5459    1.8868   -0.8726 H        1 ZINC000000020255    0.1000
21     H21    -0.5289    1.8773    0.9072 H        1 ZINC000000020255    0.0700
22     H22     0.6556   -1.5845   -1.3079 H        1 ZINC000000020255    0.0900
23     H23     0.2444   -0.0644   -2.1377 H        1 ZINC000000020255    0.1200
24     H24     1.8124    1.7863   -2.1880 H        1 ZINC000000020255    0.1400
25     H25     4.1743    2.4763   -2.1134 H        1 ZINC000000020255    0.1400
26     H26     6.3680    1.5694   -0.2839 H        1 ZINC000000020255    0.3900
27     H27     5.4917   -1.2020    0.9268 H        1 ZINC000000020255    0.3900
28     H28     2.8014   -1.8616   -0.2124 H        1 ZINC000000020255    0.1400
@<TRIPOS>BOND
1     1     2     1
2     1     19    1
3     1     20    1
4     1     21    1
5     2     3     1
6     2     7     1
7     2     16    1
8     3     4     1
9     3     5     1
10    3     6     1
11    7     8     1
12    7     22    1
13    7     23    1
14    8     15    ar
15    8     9     ar
16    9     10    ar
17    9     24    1
18    10    11    ar
19    10    25    1
20    11    12    1
21    11    13    ar
22    12    26    1
23    13    14    1
24    13    15    ar
25    14    27    1
26    15    28    1
27    16    17    ar
28    16    18    ar
@<TRIPOS>SUBSTRUCTURE
1   ZINC000000020255 1     RESIDUE    1   A     ZIN   1
