@<TRIPOS>MOLECULE
ZINC000028973446
32   34    0    0    0
SMALL
USER_CHARGES
NO_NAME
@<TRIPOS>ATOM
1 O1        0.0100    -0.0284     0.0418 O.co2  1 <0>      -0.6500
2 C2        0.0002     1.1906     0.0243 C.2    1 <0>       0.4900
3 O3        1.0512     1.8087     0.0215 O.co2  1 <0>      -0.6700
4 C4       -1.3108     1.9334    -0.0002 C.3    1 <0>      -0.0300
5 H5       -1.2945     2.6764    -0.7976 H      1 <0>       0.1300
6 N6       -2.4039     0.9901    -0.2321 N.2    1 <0>      -0.4700
7 C7       -2.5970    -0.0265     0.5315 C.2    1 <0>       0.2600
8 C8       -3.7382    -0.9158     0.2131 C.ar   1 <0>      -0.0400
9 C9       -4.3100    -1.7055     1.2105 C.ar   1 <0>      -0.1000
10 C10      -5.3727    -2.5319     0.9077 C.ar   1 <0>      -0.1300
11 C11      -5.8711    -2.5781    -0.3820 C.ar   1 <0>      -0.1100
12 C12      -5.3082    -1.7971    -1.3756 C.ar   1 <0>      -0.1300
13 C13      -4.2489    -0.9625    -1.0839 C.ar   1 <0>      -0.0700
14 C14      -1.7690    -0.3726     1.6975 C.ar   1 <0>      -0.0300
15 C15      -1.4710    -1.7280     1.9039 C.ar   1 <0>      -0.0500
16 C16      -0.6994    -2.1190     2.9752 C.ar   1 <0>      -0.0400
17 Cl17     -0.3392    -3.7998     3.2178 Cl     1 <0>      -0.0800
18 C18      -0.2099    -1.1709     3.8594 C.ar   1 <0>      -0.0900
19 C19      -0.4951     0.1635     3.6695 C.ar   1 <0>      -0.1300
20 C20      -1.2770     0.5781     2.5897 C.ar   1 <0>       0.1600
21 N21      -1.5251     1.9370     2.4681 N.am   1 <0>      -0.6600
22 C22      -1.5269     2.6178     1.3219 C.2    1 <0>       0.5400
23 O23      -1.7090     3.8166     1.3472 O.2    1 <0>      -0.5300
24 H24      -3.9215    -1.6705     2.2176 H      1 <0>       0.1300
25 H25      -5.8161    -3.1441     1.6791 H      1 <0>       0.1200
26 H26      -6.7029    -3.2267    -0.6142 H      1 <0>       0.1200
27 H27      -5.7014    -1.8377    -2.3806 H      1 <0>       0.1200
28 H28      -3.8102    -0.3533    -1.8604 H      1 <0>       0.1300
29 H29      -1.8501    -2.4705     1.2174 H      1 <0>       0.1400
30 H30       0.3958    -1.4786     4.6990 H      1 <0>       0.1300
31 H31      -0.1103     0.8963     4.3632 H      1 <0>       0.1300
32 H32      -1.7115     2.4320     3.2811 H      1 <0>       0.4000
@<TRIPOS>BOND
1    1    2 ar
2    2    3 ar
3    2    4 1
4    4    5 1
5    4   22 1
6    4    6 1
7    6    7 2
8    7    8 1
9    7   14 1
10    8   13 ar
11    8    9 ar
12    9   10 ar
13    9   24 1
14   10   11 ar
15   10   25 1
16   11   12 ar
17   11   26 1
18   12   13 ar
19   12   27 1
20   13   28 1
21   14   20 ar
22   14   15 ar
23   15   16 ar
24   15   29 1
25   16   17 1
26   16   18 ar
27   18   19 ar
28   18   30 1
29   19   20 ar
30   19   31 1
31   20   21 1
32   21   22 am
33   21   32 1
34   22   23 2
