@<TRIPOS>MOLECULE
ZINC000000001655
29   30    0    0    0
SMALL
USER_CHARGES
NO_NAME
@<TRIPOS>ATOM
1 C1        0.6460     1.4506    -0.0536 C.3    1 <0>      -0.1100
2 C2        0.4040    -0.0368    -0.0560 C.ar   1 <0>      -0.0400
3 C3        0.2507    -0.7094    -1.2542 C.ar   1 <0>      -0.1700
4 C4        0.0285    -2.0745    -1.2615 C.ar   1 <0>      -0.0700
5 C5       -0.0415    -2.7713    -0.0701 C.ar   1 <0>      -0.1000
6 Cl6      -0.3205    -4.4847    -0.0804 Cl     1 <0>      -0.0600
7 C7        0.1122    -2.0986     1.1365 C.ar   1 <0>       0.2900
8 N8        0.0424    -2.8004     2.3443 N.pl3  1 <0>      -0.6600
9 C9        0.2739    -4.1683     2.3662 C.ar   1 <0>       0.1800
10 C10      -0.7777    -5.0516     2.5784 C.ar   1 <0>      -0.1400
11 C11      -0.5448    -6.4113     2.6002 C.ar   1 <0>      -0.1200
12 C12       0.7356    -6.9082     2.4109 C.ar   1 <0>      -0.1400
13 C13       1.7914    -6.0501     2.1986 C.ar   1 <0>      -0.0800
14 C14       1.5725    -4.6688     2.1681 C.ar   1 <0>      -0.1300
15 C15       2.6949    -3.7463     1.9420 C.2    1 <0>       0.5200
16 O16       3.8031    -4.1866     1.6678 O.co2  1 <0>      -0.6900
17 O17       2.5207    -2.5382     2.0280 O.co2  1 <0>      -0.6600
18 C18       0.3413    -0.7280     1.1396 C.ar   1 <0>      -0.0700
19 Cl19      0.5347     0.1175     2.6434 Cl     1 <0>      -0.0700
20 H20       1.7178     1.6445    -0.0951 H      1 <0>       0.0700
21 H21       0.1618     1.8989    -0.9211 H      1 <0>       0.0700
22 H22       0.2333     1.8843     0.8573 H      1 <0>       0.0700
23 H23       0.3042    -0.1675    -2.1868 H      1 <0>       0.1300
24 H24      -0.0908    -2.5965    -2.1994 H      1 <0>       0.1300
25 H25      -0.1678    -2.3308     3.1666 H      1 <0>       0.4100
26 H26      -1.7783    -4.6733     2.7268 H      1 <0>       0.1100
27 H27      -1.3656    -7.0933     2.7662 H      1 <0>       0.1100
28 H28       0.9059    -7.9745     2.4304 H      1 <0>       0.1100
29 H29       2.7867    -6.4432     2.0522 H      1 <0>       0.1200
@<TRIPOS>BOND
1    1    2 1
2    1   20 1
3    1   21 1
4    1   22 1
5    2   18 ar
6    2    3 ar
7    3    4 ar
8    3   23 1
9    4    5 ar
10    4   24 1
11    5    6 1
12    5    7 ar
13    7    8 1
14    7   18 ar
15    8    9 1
16    8   25 1
17    9   14 ar
18    9   10 ar
19   10   11 ar
20   10   26 1
21   11   12 ar
22   11   27 1
23   12   13 ar
24   12   28 1
25   13   14 ar
26   13   29 1
27   14   15 1
28   15   16 ar
29   15   17 ar
30   18   19 1
