@<TRIPOS>MOLECULE
ZINC000001481956
58    62    1     0     0
SMALL
USER_CHARGES
@<TRIPOS>ATOM
1      C1     -0.0184    1.5028    0.0103 C.3      1 ZINC000001481956   -0.1100
2      C2      0.0021   -0.0041    0.0020 C.2      1 ZINC000001481956    0.1900
3      C3     -1.1658   -0.7052    0.0038 C.2      1 ZINC000001481956   -0.2600
4      C4     -2.4948    0.0051    0.0219 C.3      1 ZINC000001481956   -0.0500
5      C5     -3.0152    0.1500   -1.4096 C.3      1 ZINC000001481956    0.0600
6      N6     -4.3107    0.8423   -1.3919 N.3      1 ZINC000001481956   -0.5400
7      C7     -5.1888    0.2894   -0.3528 C.3      1 ZINC000001481956    0.0500
8      C8     -6.4676    1.1255   -0.2657 C.3      1 ZINC000001481956   -0.1100
9      C9     -7.1770    1.1072   -1.6225 C.3      1 ZINC000001481956   -0.0200
10     C10    -8.4056    1.9777   -1.5603 C.2      1 ZINC000001481956    0.1500
11     N11    -8.4338    3.2489   -1.3013 N.2      1 ZINC000001481956   -0.2700
12     O12    -9.7685    3.7133   -1.3332 O.3      1 ZINC000001481956   -0.0900
13     C13   -10.5918    2.6857   -1.6234 C.ar     1 ZINC000001481956    0.1100
14     C14   -11.9678    2.5788   -1.7769 C.ar     1 ZINC000001481956   -0.1700
15     C15   -12.5307    1.3555   -2.0825 C.ar     1 ZINC000001481956    0.1600
16     F16   -13.8695    1.2526   -2.2316 F        1 ZINC000001481956   -0.1200
17     C17   -11.7313    0.2292   -2.2384 C.ar     1 ZINC000001481956   -0.1800
18     C18   -10.3761    0.3155   -2.0907 C.ar     1 ZINC000001481956   -0.0100
19     C19    -9.7872    1.5453   -1.7873 C.ar     1 ZINC000001481956   -0.2100
20     C20    -6.2243    1.6427   -2.6950 C.3      1 ZINC000001481956   -0.1100
21     C21    -4.9526    0.7916   -2.7117 C.3      1 ZINC000001481956    0.0600
22     C22    -1.0977   -2.1101   -0.0123 C.2      1 ZINC000001481956    0.5200
23     O23    -2.1194   -2.7764    0.0013 O.2      1 ZINC000001481956   -0.5300
24     N24     0.1167   -2.7177   -0.0434 N.am     1 ZINC000001481956   -0.5000
25     C25     0.1217   -4.1796   -0.1106 C.3      1 ZINC000001481956    0.0800
26     C26     1.4718   -4.7462    0.3202 C.3      1 ZINC000001481956   -0.1300
27     C27     2.5691   -4.0302   -0.4774 C.3      1 ZINC000001481956   -0.1200
28     C28     2.6156   -2.5747   -0.0169 C.3      1 ZINC000001481956    0.1700
29     H29     3.0226   -2.5301    0.9933 H        1 ZINC000001481956    0.1000
30     O30     3.4579   -1.8284   -0.8976 O.3      1 ZINC000001481956   -0.5400
31     C31     1.2324   -1.9722   -0.0231 C.2      1 ZINC000001481956    0.3700
32     N32     1.1610   -0.6576   -0.0126 N.2      1 ZINC000001481956   -0.5500
33     H33     1.0042    1.8801    0.0026 H        1 ZINC000001481956    0.0800
34     H34    -0.5455    1.8639   -0.8728 H        1 ZINC000001481956    0.0900
35     H35    -0.5286    1.8543    0.9071 H        1 ZINC000001481956    0.0900
36     H36    -3.2074   -0.5724    0.6109 H        1 ZINC000001481956    0.0800
37     H37    -2.3728    0.9931    0.4658 H        1 ZINC000001481956    0.0900
38     H38    -2.3027    0.7274   -1.9985 H        1 ZINC000001481956    0.0800
39     H39    -3.1373   -0.8380   -1.8535 H        1 ZINC000001481956    0.0400
40     H40    -5.4444   -0.7402   -0.6034 H        1 ZINC000001481956    0.0400
41     H41    -4.6739    0.3121    0.6076 H        1 ZINC000001481956    0.0900
42     H42    -7.1259    0.7056    0.4948 H        1 ZINC000001481956    0.0700
43     H43    -6.2138    2.1521   -0.0016 H        1 ZINC000001481956    0.0800
44     H44    -7.4665    0.0855   -1.8684 H        1 ZINC000001481956    0.1000
45     H45   -12.5956    3.4494   -1.6573 H        1 ZINC000001481956    0.1500
46     H46   -12.1850   -0.7212   -2.4778 H        1 ZINC000001481956    0.1500
47     H47    -9.7611   -0.5639   -2.2125 H        1 ZINC000001481956    0.1500
48     H48    -6.7088    1.5923   -3.6701 H        1 ZINC000001481956    0.0700
49     H49    -5.9667    2.6775   -2.4691 H        1 ZINC000001481956    0.0800
50     H50    -4.2661    1.1790   -3.4645 H        1 ZINC000001481956    0.0800
51     H51    -5.2093   -0.2403   -2.9513 H        1 ZINC000001481956    0.0400
52     H52    -0.6557   -4.5702    0.5460 H        1 ZINC000001481956    0.1000
53     H53    -0.0865   -4.4911   -1.1341 H        1 ZINC000001481956    0.0900
54     H54     1.6198   -4.5734    1.3861 H        1 ZINC000001481956    0.0800
55     H55     1.5048   -5.8157    0.1125 H        1 ZINC000001481956    0.1100
56     H56     3.5313   -4.5067   -0.2897 H        1 ZINC000001481956    0.1000
57     H57     2.3379   -4.0725   -1.5418 H        1 ZINC000001481956    0.0900
58     H58     3.5363   -0.8924   -0.6677 H        1 ZINC000001481956    0.4000
@<TRIPOS>BOND
1     1     2     1
2     1     33    1
3     1     34    1
4     1     35    1
5     2     32    1
6     2     3     2
7     3     4     1
8     3     22    1
9     4     5     1
10    4     36    1
11    4     37    1
12    5     6     1
13    5     38    1
14    5     39    1
15    6     21    1
16    6     7     1
17    7     8     1
18    7     40    1
19    7     41    1
20    8     9     1
21    8     42    1
22    8     43    1
23    9     10    1
24    9     20    1
25    9     44    1
26    10    19    1
27    10    11    2
28    11    12    1
29    12    13    1
30    13    19    ar
31    13    14    ar
32    14    15    ar
33    14    45    1
34    15    16    1
35    15    17    ar
36    17    18    ar
37    17    46    1
38    18    19    ar
39    18    47    1
40    20    21    1
41    20    48    1
42    20    49    1
43    21    50    1
44    21    51    1
45    22    23    2
46    22    24    am
47    24    31    1
48    24    25    1
49    25    26    1
50    25    52    1
51    25    53    1
52    26    27    1
53    26    54    1
54    26    55    1
55    27    28    1
56    27    56    1
57    27    57    1
58    28    29    1
59    28    30    1
60    28    31    1
61    30    58    1
62    31    32    2
@<TRIPOS>SUBSTRUCTURE
1   ZINC000001481956 1     RESIDUE    1   A     ZIN   1
