@<TRIPOS>MOLECULE
ZINC000003604264
32    34    1     0     0
SMALL
USER_CHARGES
@<TRIPOS>ATOM
1      N1     -0.0283    0.9886    1.4154 N.pl3    1 ZINC000003604264   -0.8800
2      C2     -0.0036   -0.2031    0.6867 C.ar     1 ZINC000003604264    0.2400
3      C3     -1.1945   -0.8082    0.2981 C.ar     1 ZINC000003604264   -0.1600
4      C4     -1.1701   -1.9875   -0.4230 C.ar     1 ZINC000003604264   -0.0700
5      C5      0.0318   -2.5739   -0.7625 C.ar     1 ZINC000003604264   -0.1000
6      C6      1.2337   -1.9756   -0.3778 C.ar     1 ZINC000003604264   -0.1100
7      C7      1.2047   -0.7818    0.3446 C.ar     1 ZINC000003604264   -0.1700
8      C8      2.6416   -0.4023    0.6011 C.3      1 ZINC000003604264    0.1400
9      N9      3.4599   -1.4508   -0.0188 N.am     1 ZINC000003604264   -0.6100
10     C10     4.9241   -1.5010   -0.0213 C.3      1 ZINC000003604264    0.1500
11     H11     5.2641   -2.1742   -0.8083 H        1 ZINC000003604264    0.1500
12     C12     5.4214   -2.0081    1.3365 C.3      1 ZINC000003604264   -0.1400
13     C13     5.0271   -0.9900    2.4119 C.3      1 ZINC000003604264   -0.1500
14     C14     5.5720    0.3625    2.0355 C.2      1 ZINC000003604264    0.5200
15     O15     5.8529    1.1543    2.9095 O.2      1 ZINC000003604264   -0.4900
16     N16     5.7529    0.7080    0.7521 N.am     1 ZINC000003604264   -0.6700
17     C17     5.4745   -0.1210   -0.2669 C.2      1 ZINC000003604264    0.5200
18     O18     5.6705    0.2489   -1.4046 O.2      1 ZINC000003604264   -0.4700
19     C19     2.6443   -2.3552   -0.5877 C.2      1 ZINC000003604264    0.5700
20     O20     3.0153   -3.3479   -1.1830 O.2      1 ZINC000003604264   -0.5100
21     H21     0.8030    1.4114    1.6821 H        1 ZINC000003604264    0.4000
22     H22    -0.8768    1.3955    1.6511 H        1 ZINC000003604264    0.4000
23     H23    -2.1396   -0.3561    0.5604 H        1 ZINC000003604264    0.1300
24     H24    -2.0977   -2.4529   -0.7220 H        1 ZINC000003604264    0.1400
25     H25     0.0432   -3.4956   -1.3253 H        1 ZINC000003604264    0.1300
26     H26     2.8612    0.5630    0.1450 H        1 ZINC000003604264    0.0900
27     H27     2.8329   -0.3627    1.6734 H        1 ZINC000003604264    0.0900
28     H28     4.9618   -2.9712    1.5583 H        1 ZINC000003604264    0.1100
29     H29     6.5060   -2.1139    1.3129 H        1 ZINC000003604264    0.1000
30     H30     3.9407   -0.9380    2.4833 H        1 ZINC000003604264    0.1200
31     H31     5.4420   -1.2955    3.3724 H        1 ZINC000003604264    0.1200
32     H32     6.0987    1.5918    0.5518 H        1 ZINC000003604264    0.4200
@<TRIPOS>BOND
1     1     2     1
2     1     21    1
3     1     22    1
4     2     7     ar
5     2     3     ar
6     3     4     ar
7     3     23    1
8     4     5     ar
9     4     24    1
10    5     6     ar
11    5     25    1
12    6     19    1
13    6     7     ar
14    7     8     1
15    8     9     1
16    8     26    1
17    8     27    1
18    9     10    1
19    9     19    am
20    10    11    1
21    10    17    1
22    10    12    1
23    12    13    1
24    12    28    1
25    12    29    1
26    13    14    1
27    13    30    1
28    13    31    1
29    14    15    2
30    14    16    am
31    16    17    am
32    16    32    1
33    17    18    2
34    19    20    2
@<TRIPOS>SUBSTRUCTURE
1   ZINC000003604264 1     RESIDUE    1   A     ZIN   1
