@<TRIPOS>MOLECULE
ZINC000019228902
54    57    1     0     0
SMALL
USER_CHARGES
@<TRIPOS>ATOM
1      O1     -3.0369    1.2955    1.5675 O.3      1 ZINC000019228902   -0.5800
2      C2     -1.6699    1.2621    1.1524 C.3      1 ZINC000019228902    0.0300
3      C3     -1.4435    0.0556    0.2393 C.3      1 ZINC000019228902    0.0500
4      N4     -2.2011    0.2353   -1.0064 N.3      1 ZINC000019228902   -0.5300
5      C5     -1.9937    1.5811   -1.5595 C.3      1 ZINC000019228902    0.0200
6      C6     -2.7500    1.7072   -2.8838 C.3      1 ZINC000019228902    0.0000
7      N7     -4.1811    1.4682   -2.6553 N.4      1 ZINC000019228902   -0.3800
8      H8     -4.5324    2.1414   -1.9908 H        1 ZINC000019228902    0.4200
9      C9     -4.9091    1.6068   -3.9237 C.3      1 ZINC000019228902   -0.0100
10     C10    -6.4119    1.4816   -3.6655 C.3      1 ZINC000019228902   -0.1900
11     C11    -7.1702    1.6259   -4.9865 C.3      1 ZINC000019228902    0.1200
12     N12    -8.6092    1.5060   -4.7393 N.pl3    1 ZINC000019228902   -0.5600
13     C13    -9.3164    2.6699   -4.4478 C.ar     1 ZINC000019228902    0.1800
14     C14    -8.6301    3.7525   -3.9082 C.ar     1 ZINC000019228902   -0.1600
15     C15    -9.2987    4.9251   -3.6104 C.ar     1 ZINC000019228902   -0.0800
16     C16   -10.6559    5.0298   -3.8472 C.ar     1 ZINC000019228902   -0.1300
17     C17   -11.3481    3.9589   -4.3821 C.ar     1 ZINC000019228902   -0.0500
18     C18   -10.6840    2.7773   -4.6827 C.ar     1 ZINC000019228902   -0.1500
19     S19   -11.5895    1.4267   -5.3571 S.3      1 ZINC000019228902    0.0400
20     C20   -10.5263    0.0487   -5.0928 C.ar     1 ZINC000019228902   -0.1500
21     C21   -11.0476   -1.2359   -5.1663 C.ar     1 ZINC000019228902   -0.0400
22     C22   -10.2301   -2.3321   -4.9605 C.ar     1 ZINC000019228902   -0.1200
23     C23    -8.8886   -2.1496   -4.6796 C.ar     1 ZINC000019228902    0.0000
24     Cl24   -7.8629   -3.5258   -4.4198 Cl       1 ZINC000019228902   -0.0500
25     C25    -8.3624   -0.8726   -4.6047 C.ar     1 ZINC000019228902   -0.1600
26     C26    -9.1770    0.2366   -4.8173 C.ar     1 ZINC000019228902    0.2000
27     C27    -4.3744    0.1117   -2.1262 C.3      1 ZINC000019228902   -0.0100
28     C28    -3.6316   -0.0276   -0.7955 C.3      1 ZINC000019228902    0.0200
29     H29    -3.2530    2.0363    2.1503 H        1 ZINC000019228902    0.3900
30     H30    -1.4323    2.1776    0.6105 H        1 ZINC000019228902    0.0500
31     H31    -1.0261    1.1808    2.0282 H        1 ZINC000019228902    0.0600
32     H32    -0.3816   -0.0319    0.0094 H        1 ZINC000019228902    0.1100
33     H33    -1.7820   -0.8499    0.7430 H        1 ZINC000019228902    0.1000
34     H34    -2.3666    2.3251   -0.8555 H        1 ZINC000019228902    0.0700
35     H35    -0.9297    1.7437   -1.7314 H        1 ZINC000019228902    0.1200
36     H36    -2.6091    2.7094   -3.2887 H        1 ZINC000019228902    0.1400
37     H37    -2.3675    0.9722   -3.5921 H        1 ZINC000019228902    0.1400
38     H38    -4.6956    2.5824   -4.3604 H        1 ZINC000019228902    0.1400
39     H39    -4.5921    0.8233   -4.6120 H        1 ZINC000019228902    0.1400
40     H40    -6.6255    0.5060   -3.2287 H        1 ZINC000019228902    0.1000
41     H41    -6.7289    2.2651   -2.9771 H        1 ZINC000019228902    0.1000
42     H42    -6.9566    2.6015   -5.4233 H        1 ZINC000019228902    0.1000
43     H43    -6.8532    0.8424   -5.6748 H        1 ZINC000019228902    0.1000
44     H44    -7.5693    3.6765   -3.7204 H        1 ZINC000019228902    0.1200
45     H45    -8.7589    5.7614   -3.1914 H        1 ZINC000019228902    0.1300
46     H46   -11.1758    5.9472   -3.6142 H        1 ZINC000019228902    0.1400
47     H47   -12.4090    4.0418   -4.5664 H        1 ZINC000019228902    0.1400
48     H48   -12.0955   -1.3796   -5.3847 H        1 ZINC000019228902    0.1500
49     H49   -10.6391   -3.3299   -5.0187 H        1 ZINC000019228902    0.1500
50     H50    -7.3141   -0.7357   -4.3836 H        1 ZINC000019228902    0.1300
51     H51    -5.4378   -0.0690   -1.9693 H        1 ZINC000019228902    0.1300
52     H52    -3.9836   -0.6151   -2.8383 H        1 ZINC000019228902    0.1400
53     H53    -3.7626   -1.0387   -0.4100 H        1 ZINC000019228902    0.1200
54     H54    -4.0315    0.6898   -0.0789 H        1 ZINC000019228902    0.0900
@<TRIPOS>BOND
1     1     2     1
2     1     29    1
3     2     3     1
4     2     30    1
5     2     31    1
6     3     4     1
7     3     32    1
8     3     33    1
9     4     28    1
10    4     5     1
11    5     6     1
12    5     34    1
13    5     35    1
14    6     7     1
15    6     36    1
16    6     37    1
17    7     8     1
18    7     9     1
19    7     27    1
20    9     10    1
21    9     38    1
22    9     39    1
23    10    11    1
24    10    40    1
25    10    41    1
26    11    12    1
27    11    42    1
28    11    43    1
29    12    26    1
30    12    13    1
31    13    18    ar
32    13    14    ar
33    14    15    ar
34    14    44    1
35    15    16    ar
36    15    45    1
37    16    17    ar
38    16    46    1
39    17    18    ar
40    17    47    1
41    18    19    1
42    19    20    1
43    20    26    ar
44    20    21    ar
45    21    22    ar
46    21    48    1
47    22    23    ar
48    22    49    1
49    23    24    1
50    23    25    ar
51    25    26    ar
52    25    50    1
53    27    28    1
54    27    51    1
55    27    52    1
56    28    53    1
57    28    54    1
@<TRIPOS>SUBSTRUCTURE
1   ZINC000019228902 1     RESIDUE    1   A     ZIN   1
