@<TRIPOS>MOLECULE
ZINC000000002279
31    33    1     0     0
SMALL
USER_CHARGES
@<TRIPOS>ATOM
1      O1      0.9448    0.1698    0.2605 O.co2    1 ZINC000000002279   -0.6900
2      C2      0.7673    1.3758    0.2375 C.2      1 ZINC000000002279    0.5100
3      O3      1.7172    2.1337    0.3356 O.co2    1 ZINC000000002279   -0.6800
4      C4     -0.6256    1.9296    0.0814 C.3      1 ZINC000000002279   -0.1200
5      H5     -1.3668    1.1737    0.3410 H        1 ZINC000000002279    0.0900
6      C6     -0.8488    2.4321   -1.3624 C.3      1 ZINC000000002279   -0.1100
7      C7     -0.4776    3.9250   -1.2394 C.3      1 ZINC000000002279    0.1100
8      N8     -0.7195    4.2781    0.1695 N.pl3    1 ZINC000000002279   -0.4200
9      C9     -0.8908    5.3851    0.9795 C.2      1 ZINC000000002279   -0.0800
10     C10    -0.8762    6.7842    0.5467 C.2      1 ZINC000000002279    0.4600
11     O11    -0.8228    7.0540   -0.6391 O.2      1 ZINC000000002279   -0.4800
12     C12    -0.9262    7.8693    1.5503 C.ar     1 ZINC000000002279   -0.1400
13     C13    -0.3971    7.6688    2.8266 C.ar     1 ZINC000000002279   -0.0800
14     C14    -0.4466    8.6852    3.7578 C.ar     1 ZINC000000002279   -0.1300
15     C15    -1.0190    9.9014    3.4294 C.ar     1 ZINC000000002279   -0.1000
16     C16    -1.5457   10.1066    2.1663 C.ar     1 ZINC000000002279   -0.1300
17     C17    -1.4975    9.1006    1.2238 C.ar     1 ZINC000000002279   -0.0700
18     C18    -1.0786    4.9331    2.2697 C.2      1 ZINC000000002279   -0.1200
19     C19    -1.0206    3.5395    2.2285 C.2      1 ZINC000000002279   -0.2100
20     C20    -0.8045    3.1652    0.9415 C.2      1 ZINC000000002279    0.1100
21     H21    -0.1849    1.9215   -2.0599 H        1 ZINC000000002279    0.0900
22     H22    -1.8906    2.3128   -1.6599 H        1 ZINC000000002279    0.0700
23     H23     0.5727    4.0740   -1.4902 H        1 ZINC000000002279    0.0900
24     H24    -1.1106    4.5257   -1.8925 H        1 ZINC000000002279    0.0800
25     H25     0.0497    6.7199    3.0843 H        1 ZINC000000002279    0.1400
26     H26    -0.0379    8.5313    4.7456 H        1 ZINC000000002279    0.1300
27     H27    -1.0552   10.6939    4.1622 H        1 ZINC000000002279    0.1200
28     H28    -1.9917   11.0580    1.9166 H        1 ZINC000000002279    0.1300
29     H29    -1.9087    9.2621    0.2383 H        1 ZINC000000002279    0.1300
30     H30    -1.2401    5.5430    3.1462 H        1 ZINC000000002279    0.1500
31     H31    -1.1285    2.8739    3.0722 H        1 ZINC000000002279    0.1400
@<TRIPOS>BOND
1     1     2     ar
2     2     3     ar
3     2     4     1
4     4     5     1
5     4     20    1
6     4     6     1
7     6     7     1
8     6     21    1
9     6     22    1
10    7     8     1
11    7     23    1
12    7     24    1
13    8     20    1
14    8     9     1
15    9     10    1
16    9     18    2
17    10    11    2
18    10    12    1
19    12    17    ar
20    12    13    ar
21    13    14    ar
22    13    25    1
23    14    15    ar
24    14    26    1
25    15    16    ar
26    15    27    1
27    16    17    ar
28    16    28    1
29    17    29    1
30    18    19    1
31    18    30    1
32    19    20    2
33    19    31    1
@<TRIPOS>SUBSTRUCTURE
1   ZINC000000002279 1     RESIDUE    1   A     ZIN   1
