@<TRIPOS>MOLECULE
ZINC000000119717
31    33    1     0     0
SMALL
USER_CHARGES
@<TRIPOS>ATOM
1      C1     -0.0164    1.3570    0.0095 C.ar     1 ZINC000000119717   -0.1200
2      C2      1.1682    2.0907    0.0021 C.ar     1 ZINC000000119717   -0.0900
3      C3      2.3783    1.4675   -0.0132 C.ar     1 ZINC000000119717   -0.1500
4      C4      2.4374    0.0638   -0.0212 C.ar     1 ZINC000000119717   -0.0300
5      C5      1.2323   -0.6825   -0.0132 C.ar     1 ZINC000000119717   -0.0600
6      C6      0.0021   -0.0041    0.0020 C.ar     1 ZINC000000119717   -0.0900
7      C7      1.2916   -2.0867   -0.0208 C.ar     1 ZINC000000119717   -0.0700
8      C8      2.5015   -2.7095   -0.0356 C.ar     1 ZINC000000119717   -0.1300
9      C9      3.6864   -1.9757   -0.0435 C.ar     1 ZINC000000119717   -0.0800
10     C10     3.6680   -0.6149   -0.0365 C.ar     1 ZINC000000119717   -0.1200
11     C11     4.9604    0.1601   -0.0457 C.3      1 ZINC000000119717   -0.0600
12     C12     5.3418    0.5176    1.3677 C.cat    1 ZINC000000119717    0.5200
13     N13     4.9474    1.6286    1.9442 N.pl3    1 ZINC000000119717   -0.6300
14     H14     4.3899    2.3074    1.5326 H        1 ZINC000000119717    0.4600
15     C15     5.4833    1.6820    3.3139 C.3      1 ZINC000000119717    0.0600
16     C16     6.2811    0.3668    3.4313 C.3      1 ZINC000000119717    0.0600
17     N17     6.0883   -0.2617    2.1144 N.pl3    1 ZINC000000119717   -0.6300
18     H18    -0.9634    1.8761    0.0259 H        1 ZINC000000119717    0.1300
19     H19     1.1255    3.1698    0.0083 H        1 ZINC000000119717    0.1300
20     H20     3.2883    2.0492   -0.0195 H        1 ZINC000000119717    0.1100
21     H21    -0.9241   -0.5595    0.0086 H        1 ZINC000000119717    0.1400
22     H22     0.3816   -2.6684   -0.0145 H        1 ZINC000000119717    0.1400
23     H23     2.5442   -3.7887   -0.0410 H        1 ZINC000000119717    0.1400
24     H24     4.6334   -2.4947   -0.0549 H        1 ZINC000000119717    0.1300
25     H25     5.7466   -0.4496   -0.4911 H        1 ZINC000000119717    0.1400
26     H26     4.8332    1.0718   -0.6294 H        1 ZINC000000119717    0.1300
27     H27     6.1404    2.5430    3.4367 H        1 ZINC000000119717    0.1300
28     H28     4.6737    1.7074    4.0432 H        1 ZINC000000119717    0.1300
29     H29     7.3363    0.5716    3.6127 H        1 ZINC000000119717    0.1300
30     H30     5.8695   -0.2640    4.2192 H        1 ZINC000000119717    0.1300
31     H31     6.4588   -1.1151    1.8400 H        1 ZINC000000119717    0.4600
@<TRIPOS>BOND
1     1     6     ar
2     1     2     ar
3     1     18    1
4     2     3     ar
5     2     19    1
6     3     4     ar
7     3     20    1
8     4     10    ar
9     4     5     ar
10    5     6     ar
11    5     7     ar
12    6     21    1
13    7     8     ar
14    7     22    1
15    8     9     ar
16    8     23    1
17    9     10    ar
18    9     24    1
19    10    11    1
20    11    12    1
21    11    25    1
22    11    26    1
23    12    17    ar
24    12    13    ar
25    13    14    1
26    13    15    1
27    15    16    1
28    15    27    1
29    15    28    1
30    16    17    1
31    16    29    1
32    16    30    1
33    17    31    1
@<TRIPOS>SUBSTRUCTURE
1   ZINC000000119717 1     RESIDUE    1   A     ZIN   1
