@<TRIPOS>MOLECULE
ZINC000003871960
58    61    1     0     0
SMALL
USER_CHARGES
@<TRIPOS>ATOM
1      C1     -6.5218   -0.7582    5.3791 C.3      1 ZINC000003871960   -0.1500
2      C2     -6.5441    0.4290    4.4143 C.3      1 ZINC000003871960    0.0300
3      C3     -5.8429    1.6251    5.0612 C.3      1 ZINC000003871960   -0.1400
4      O4     -5.8659    0.0748    3.2074 O.3      1 ZINC000003871960   -0.1200
5      N5     -4.4807   -0.1664    3.3747 N.2      1 ZINC000003871960   -0.2600
6      C6     -3.7303   -0.4018    2.3360 C.2      1 ZINC000003871960    0.1300
7      C7     -4.3408   -0.5096    0.9901 C.2      1 ZINC000003871960    0.5300
8      O8     -5.5488   -0.4671    0.8657 O.2      1 ZINC000003871960   -0.4700
9      N9     -3.5562   -0.6548   -0.0961 N.am     1 ZINC000003871960   -0.7000
10     C10    -4.1556   -0.6979   -1.4322 C.3      1 ZINC000003871960    0.1300
11     H11    -5.0266   -0.0494   -1.5271 H        1 ZINC000003871960    0.1500
12     C12    -4.3848   -2.1068   -1.9525 C.2      1 ZINC000003871960    0.5300
13     O13    -5.1951   -2.9771   -1.7134 O.2      1 ZINC000003871960   -0.4100
14     N14    -3.3331   -2.0054   -2.7833 N.am     1 ZINC000003871960   -0.5700
15     C15    -2.4819   -2.8561   -3.5097 C.2      1 ZINC000003871960    0.1700
16     C16    -2.9815   -4.1479   -4.0077 C.2      1 ZINC000003871960    0.5200
17     O17    -2.2867   -4.8269   -4.7514 O.co2    1 ZINC000003871960   -0.6700
18     O18    -4.0916   -4.5427   -3.6779 O.co2    1 ZINC000003871960   -0.5900
19     C19    -1.2283   -2.4934   -3.7463 C.2      1 ZINC000003871960   -0.2600
20     C20    -0.3816   -3.4992   -4.4827 C.3      1 ZINC000003871960    0.0500
21     N21    -0.3494   -3.1604   -5.9077 N.ar     1 ZINC000003871960   -0.3000
22     C22    -1.0659   -3.8744   -6.7537 C.ar     1 ZINC000003871960    0.1400
23     C23    -1.0609   -3.5841   -8.1049 C.ar     1 ZINC000003871960   -0.1400
24     C24    -0.2901   -2.5279   -8.5661 C.ar     1 ZINC000003871960   -0.0200
25     C25     0.4499   -1.8002   -7.6467 C.ar     1 ZINC000003871960   -0.1400
26     C26     0.3911   -2.1462   -6.3099 C.ar     1 ZINC000003871960    0.1000
27     C27    -0.5480   -1.2166   -3.3763 C.3      1 ZINC000003871960   -0.0400
28     S28    -1.4092   -0.3409   -2.0350 S.3      1 ZINC000003871960   -0.1900
29     C29    -3.1445   -0.5338   -2.5622 C.3      1 ZINC000003871960    0.1300
30     H30    -3.4431    0.1183   -3.3830 H        1 ZINC000003871960    0.1500
31     C31    -2.2694   -0.5613    2.5002 C.2      1 ZINC000003871960    0.1500
32     C32    -1.6598   -0.4428    3.6961 C.2      1 ZINC000003871960   -0.2300
33     S33     0.0675   -0.7014    3.4639 S.3      1 ZINC000003871960    0.0700
34     C34    -0.1972   -0.9504    1.7411 C.2      1 ZINC000003871960    0.3600
35     N35     0.7918   -1.2294    0.8129 N.pl3    1 ZINC000003871960   -0.8100
36     N36    -1.4612   -0.8384    1.4763 N.2      1 ZINC000003871960   -0.5400
37     C37    -7.9721    0.7938    4.0996 C.2      1 ZINC000003871960    0.5200
38     O38    -8.7012    1.2177    4.9800 O.co2    1 ZINC000003871960   -0.6800
39     O39    -8.3982    0.6650    2.9646 O.co2    1 ZINC000003871960   -0.6600
40     H40    -7.0392   -0.4881    6.2997 H        1 ZINC000003871960    0.0700
41     H41    -7.0214   -1.6104    4.9183 H        1 ZINC000003871960    0.0500
42     H42    -5.4890   -1.0221    5.6068 H        1 ZINC000003871960    0.0500
43     H43    -4.8101    1.3613    5.2889 H        1 ZINC000003871960    0.0500
44     H44    -5.8588    2.4709    4.3739 H        1 ZINC000003871960    0.0500
45     H45    -6.3602    1.8953    5.9818 H        1 ZINC000003871960    0.0700
46     H46    -2.5947   -0.7307    0.0068 H        1 ZINC000003871960    0.4300
47     H47     0.6322   -3.4832   -4.0825 H        1 ZINC000003871960    0.1000
48     H48    -0.8068   -4.4947   -4.3554 H        1 ZINC000003871960    0.2200
49     H49    -1.6634   -4.6958   -6.3865 H        1 ZINC000003871960    0.2400
50     H50    -1.6496   -4.1727   -8.7929 H        1 ZINC000003871960    0.1700
51     H51    -0.2664   -2.2782   -9.6165 H        1 ZINC000003871960    0.1600
52     H52     1.0618   -0.9713   -7.9706 H        1 ZINC000003871960    0.1700
53     H53     0.9645   -1.5843   -5.5875 H        1 ZINC000003871960    0.1900
54     H54     0.4704   -1.4382   -3.0571 H        1 ZINC000003871960    0.1100
55     H55    -0.5090   -0.5699   -4.2528 H        1 ZINC000003871960    0.0800
56     H56    -2.1464   -0.2259    4.6355 H        1 ZINC000003871960    0.1900
57     H57     1.7167   -1.3009    1.0964 H        1 ZINC000003871960    0.4100
58     H58     0.5597   -1.3534   -0.1207 H        1 ZINC000003871960    0.4100
@<TRIPOS>BOND
1     1     2     1
2     1     40    1
3     1     41    1
4     1     42    1
5     2     3     1
6     2     4     1
7     2     37    1
8     3     43    1
9     3     44    1
10    3     45    1
11    4     5     1
12    5     6     2
13    6     7     1
14    6     31    1
15    7     8     2
16    7     9     am
17    9     10    1
18    9     46    1
19    10    11    1
20    10    29    1
21    10    12    1
22    12    13    2
23    12    14    am
24    14    29    1
25    14    15    1
26    15    16    1
27    15    19    2
28    16    17    ar
29    16    18    ar
30    19    20    1
31    19    27    1
32    20    21    1
33    20    47    1
34    20    48    1
35    21    26    ar
36    21    22    ar
37    22    23    ar
38    22    49    1
39    23    24    ar
40    23    50    1
41    24    25    ar
42    24    51    1
43    25    26    ar
44    25    52    1
45    26    53    1
46    27    28    1
47    27    54    1
48    27    55    1
49    28    29    1
50    29    30    1
51    31    36    1
52    31    32    2
53    32    33    1
54    32    56    1
55    33    34    1
56    34    35    1
57    34    36    2
58    35    57    1
59    35    58    1
60    37    38    ar
61    37    39    ar
@<TRIPOS>SUBSTRUCTURE
1   ZINC000003871960 1     RESIDUE    1   A     ZIN   1
