@<TRIPOS>MOLECULE
ZINC000000020244
40    41    1     0     0
SMALL
USER_CHARGES
@<TRIPOS>ATOM
1      C1     -0.0178    1.4648    0.0101 C.3      1 ZINC000000020244    0.0200
2      N2      0.0021   -0.0041    0.0020 N.3      1 ZINC000000020244   -0.5400
3      C3      0.7062   -0.5275    1.1802 C.3      1 ZINC000000020244    0.0200
4      C4     -1.3597   -0.5486   -0.0825 C.3      1 ZINC000000020244    0.0600
5      C5     -1.9710   -0.1854   -1.4372 C.3      1 ZINC000000020244    0.0600
6      O6     -1.2392   -0.8339   -2.4793 O.3      1 ZINC000000020244   -0.3500
7      C7     -1.7312   -0.5596   -3.7926 C.3      1 ZINC000000020244    0.1700
8      C8     -0.5925   -0.6184   -4.7780 C.ar     1 ZINC000000020244   -0.0800
9      C9      0.3748   -1.5987   -4.6588 C.ar     1 ZINC000000020244   -0.0800
10     C10     1.4192   -1.6526   -5.5627 C.ar     1 ZINC000000020244   -0.1200
11     C11     1.4962   -0.7265   -6.5861 C.ar     1 ZINC000000020244   -0.1200
12     C12     0.5284    0.2533   -6.7058 C.ar     1 ZINC000000020244   -0.1200
13     C13    -0.5184    0.3046   -5.8044 C.ar     1 ZINC000000020244   -0.1100
14     C14    -2.7706   -1.5855   -4.1641 C.ar     1 ZINC000000020244   -0.1100
15     C15    -2.6411   -2.8904   -3.7266 C.ar     1 ZINC000000020244   -0.0900
16     C16    -3.5945   -3.8315   -4.0674 C.ar     1 ZINC000000020244   -0.1200
17     C17    -4.6776   -3.4677   -4.8454 C.ar     1 ZINC000000020244   -0.1200
18     C18    -4.8076   -2.1626   -5.2822 C.ar     1 ZINC000000020244   -0.1200
19     C19    -3.8564   -1.2205   -4.9378 C.ar     1 ZINC000000020244   -0.1100
20     H20     1.0047    1.8421    0.0024 H        1 ZINC000000020244    0.0700
21     H21    -0.5450    1.8259   -0.8730 H        1 ZINC000000020244    0.0700
22     H22    -0.5280    1.8163    0.9069 H        1 ZINC000000020244    0.0200
23     H23     0.1617   -0.2488    2.0824 H        1 ZINC000000020244    0.0200
24     H24     0.7676   -1.6137    1.1140 H        1 ZINC000000020244    0.0700
25     H25     1.7116   -0.1084    1.2186 H        1 ZINC000000020244    0.0700
26     H26    -1.3244   -1.6331    0.0212 H        1 ZINC000000020244    0.0800
27     H27    -1.9698   -0.1268    0.7163 H        1 ZINC000000020244    0.0500
28     H28    -3.0106   -0.5117   -1.4659 H        1 ZINC000000020244    0.0500
29     H29    -1.9251    0.8944   -1.5788 H        1 ZINC000000020244    0.0500
30     H30    -2.1782    0.4343   -3.8128 H        1 ZINC000000020244    0.0700
31     H31     0.3146   -2.3223   -3.8593 H        1 ZINC000000020244    0.1300
32     H32     2.1753   -2.4181   -5.4692 H        1 ZINC000000020244    0.1200
33     H33     2.3126   -0.7682   -7.2919 H        1 ZINC000000020244    0.1200
34     H34     0.5887    0.9770   -7.5051 H        1 ZINC000000020244    0.1200
35     H35    -1.2745    1.0701   -5.8980 H        1 ZINC000000020244    0.1200
36     H36    -1.7949   -3.1747   -3.1187 H        1 ZINC000000020244    0.1300
37     H37    -3.4930   -4.8511   -3.7261 H        1 ZINC000000020244    0.1200
38     H38    -5.4221   -4.2031   -5.1123 H        1 ZINC000000020244    0.1200
39     H39    -5.6536   -1.8784   -5.8904 H        1 ZINC000000020244    0.1200
40     H40    -3.9579   -0.2009   -5.2791 H        1 ZINC000000020244    0.1200
@<TRIPOS>BOND
1     1     2     1
2     1     20    1
3     1     21    1
4     1     22    1
5     2     3     1
6     2     4     1
7     3     23    1
8     3     24    1
9     3     25    1
10    4     5     1
11    4     26    1
12    4     27    1
13    5     6     1
14    5     28    1
15    5     29    1
16    6     7     1
17    7     8     1
18    7     14    1
19    7     30    1
20    8     13    ar
21    8     9     ar
22    9     10    ar
23    9     31    1
24    10    11    ar
25    10    32    1
26    11    12    ar
27    11    33    1
28    12    13    ar
29    12    34    1
30    13    35    1
31    14    19    ar
32    14    15    ar
33    15    16    ar
34    15    36    1
35    16    17    ar
36    16    37    1
37    17    18    ar
38    17    38    1
39    18    19    ar
40    18    39    1
41    19    40    1
@<TRIPOS>SUBSTRUCTURE
1   ZINC000000020244 1     RESIDUE    1   A     ZIN   1
