@<TRIPOS>MOLECULE
ZINC000003801163
61    63    1     0     0
SMALL
USER_CHARGES
@<TRIPOS>ATOM
1      C1     11.9048   -1.5766   -6.0570 C.3      1 ZINC000003801163   -0.1500
2      C2     10.4399   -2.0102   -5.9739 C.3      1 ZINC000003801163    0.0600
3      O3     10.3709   -3.4188   -5.6285 O.3      1 ZINC000003801163   -0.3600
4      C4      9.1475   -3.9593   -5.5153 C.2      1 ZINC000003801163    0.4300
5      O5      8.1667   -3.2780   -5.6987 O.2      1 ZINC000003801163   -0.5000
6      C6      8.9972   -5.4160   -5.1593 C.3      1 ZINC000003801163    0.1000
7      H7      9.4583   -5.6024   -4.1894 H        1 ZINC000003801163    0.1200
8      C8      9.6835   -6.2745   -6.2237 C.3      1 ZINC000003801163   -0.0900
9      C9      9.6398   -7.7439   -5.7998 C.3      1 ZINC000003801163   -0.0800
10     C10    10.3157   -8.5895   -6.8481 C.ar     1 ZINC000003801163   -0.0700
11     C11     9.5811   -9.1052   -7.8994 C.ar     1 ZINC000003801163   -0.1100
12     C12    10.2011   -9.8809   -8.8611 C.ar     1 ZINC000003801163   -0.1200
13     C13    11.5559  -10.1405   -8.7717 C.ar     1 ZINC000003801163   -0.1300
14     C14    12.2908   -9.6240   -7.7209 C.ar     1 ZINC000003801163   -0.1200
15     C15    11.6715   -8.8448   -6.7616 C.ar     1 ZINC000003801163   -0.1200
16     N16     7.5705   -5.7603   -5.0976 N.3      1 ZINC000003801163   -0.6300
17     C17     7.0094   -5.4447   -3.7772 C.3      1 ZINC000003801163    0.0700
18     H18     7.7617   -5.6270   -3.0097 H        1 ZINC000003801163    0.0900
19     C19     6.5888   -3.9742   -3.7400 C.3      1 ZINC000003801163   -0.1700
20     C20     5.8081   -6.3175   -3.5202 C.2      1 ZINC000003801163    0.5100
21     O21     5.0895   -6.6464   -4.4403 O.2      1 ZINC000003801163   -0.4500
22     N22     5.5321   -6.7326   -2.2680 N.am     1 ZINC000003801163   -0.6000
23     C23     6.3065   -6.2541   -1.1179 C.3      1 ZINC000003801163    0.1500
24     C24     5.3720   -5.8988    0.0111 C.ar     1 ZINC000003801163   -0.1000
25     C25     5.8964   -5.2023    1.0910 C.ar     1 ZINC000003801163   -0.1200
26     C26     5.0933   -4.8576    2.1590 C.ar     1 ZINC000003801163   -0.1300
27     C27     3.7568   -5.2102    2.1533 C.ar     1 ZINC000003801163   -0.1200
28     C28     3.2336   -5.8990    1.0787 C.ar     1 ZINC000003801163   -0.1200
29     C29     4.0383   -6.2420   -0.0007 C.ar     1 ZINC000003801163   -0.0500
30     C30     3.3920   -6.9692   -1.1502 C.3      1 ZINC000003801163   -0.0800
31     C31     4.4374   -7.6798   -1.9993 C.3      1 ZINC000003801163    0.0800
32     H32     4.8270   -8.5425   -1.4589 H        1 ZINC000003801163    0.0600
33     C33     3.8197   -8.1286   -3.2985 C.2      1 ZINC000003801163    0.5200
34     O34     2.6686   -7.8262   -3.5628 O.co2    1 ZINC000003801163   -0.7000
35     O35     4.4711   -8.7942   -4.0854 O.co2    1 ZINC000003801163   -0.6800
36     H36    12.3868   -1.7383   -5.0928 H        1 ZINC000003801163    0.0700
37     H37    12.4147   -2.1635   -6.8210 H        1 ZINC000003801163    0.0700
38     H38    11.9566   -0.5192   -6.3163 H        1 ZINC000003801163    0.0800
39     H39     9.9300   -1.4234   -5.2099 H        1 ZINC000003801163    0.0700
40     H40     9.9579   -1.8485   -6.9381 H        1 ZINC000003801163    0.0700
41     H41     9.1661   -6.1554   -7.1756 H        1 ZINC000003801163    0.0700
42     H42    10.7210   -5.9583   -6.3320 H        1 ZINC000003801163    0.0800
43     H43    10.1572   -7.8630   -4.8478 H        1 ZINC000003801163    0.0700
44     H44     8.6023   -8.0601   -5.6914 H        1 ZINC000003801163    0.1000
45     H45     8.5226   -8.9024   -7.9693 H        1 ZINC000003801163    0.1300
46     H46     9.6270  -10.2844   -9.6820 H        1 ZINC000003801163    0.1200
47     H47    12.0402  -10.7471   -9.5226 H        1 ZINC000003801163    0.1200
48     H48    13.3492   -9.8271   -7.6509 H        1 ZINC000003801163    0.1200
49     H49    12.2457   -8.4413   -5.9406 H        1 ZINC000003801163    0.1200
50     H50     7.0545   -5.2962   -5.8301 H        1 ZINC000003801163    0.3700
51     H51     5.9117   -3.7689   -4.5691 H        1 ZINC000003801163    0.0700
52     H52     6.0830   -3.7647   -2.7974 H        1 ZINC000003801163    0.0600
53     H53     7.4720   -3.3413   -3.8269 H        1 ZINC000003801163    0.0700
54     H54     6.9903   -7.0371   -0.7899 H        1 ZINC000003801163    0.0700
55     H55     6.8780   -5.3721   -1.4070 H        1 ZINC000003801163    0.0800
56     H56     6.9411   -4.9283    1.0957 H        1 ZINC000003801163    0.1200
57     H57     5.5074   -4.3150    2.9960 H        1 ZINC000003801163    0.1200
58     H58     3.1239   -4.9474    2.9880 H        1 ZINC000003801163    0.1200
59     H59     2.1892   -6.1743    1.0765 H        1 ZINC000003801163    0.1200
60     H60     2.6868   -7.7027   -0.7593 H        1 ZINC000003801163    0.0800
61     H61     2.8550   -6.2524   -1.7714 H        1 ZINC000003801163    0.0900
@<TRIPOS>BOND
1     1     2     1
2     1     36    1
3     1     37    1
4     1     38    1
5     2     3     1
6     2     39    1
7     2     40    1
8     3     4     1
9     4     5     2
10    4     6     1
11    6     7     1
12    6     8     1
13    6     16    1
14    8     9     1
15    8     41    1
16    8     42    1
17    9     10    1
18    9     43    1
19    9     44    1
20    10    15    ar
21    10    11    ar
22    11    12    ar
23    11    45    1
24    12    13    ar
25    12    46    1
26    13    14    ar
27    13    47    1
28    14    15    ar
29    14    48    1
30    15    49    1
31    16    17    1
32    16    50    1
33    17    18    1
34    17    19    1
35    17    20    1
36    19    51    1
37    19    52    1
38    19    53    1
39    20    21    2
40    20    22    am
41    22    31    1
42    22    23    1
43    23    24    1
44    23    54    1
45    23    55    1
46    24    29    ar
47    24    25    ar
48    25    26    ar
49    25    56    1
50    26    27    ar
51    26    57    1
52    27    28    ar
53    27    58    1
54    28    29    ar
55    28    59    1
56    29    30    1
57    30    31    1
58    30    60    1
59    30    61    1
60    31    32    1
61    31    33    1
62    33    34    ar
63    33    35    ar
@<TRIPOS>SUBSTRUCTURE
1   ZINC000003801163 1     RESIDUE    1   A     ZIN   1
