@<TRIPOS>MOLECULE
ZINC000003871701
40   42    0    0    0
SMALL
USER_CHARGES
NO_NAME
@<TRIPOS>ATOM
1 C1       -0.0187     1.5258     0.0104 C.3    1 <0>      -0.1300
2 C2        0.0021    -0.0041     0.0020 C.3    1 <0>       0.0300
3 C3       -1.4134    -0.5749    -0.1053 C.3    1 <0>      -0.1200
4 S4        1.0907    -0.6522    -1.3359 S.3    1 <0>      -0.3000
5 C5        2.6329    -0.5170    -0.3543 C.3    1 <0>       0.0900
6 H6        3.2816     0.3031    -0.6620 H      1 <0>       0.1500
7 C7        3.3483    -1.8438    -0.1277 C.3    1 <0>       0.1000
8 H8        4.4222    -1.8139    -0.3121 H      1 <0>       0.1500
9 N9        2.6851    -3.0008    -0.7340 N.am   1 <0>      -0.7000
10 C10       3.4015    -4.0962    -1.0557 C.2    1 <0>       0.5200
11 O11       4.5952    -4.1240    -0.8432 O.2    1 <0>      -0.5200
12 C12       2.7192    -5.2863    -1.6795 C.3    1 <0>      -0.1000
13 C13       3.7352    -6.3685    -1.9395 C.ar   1 <0>      -0.0700
14 C14       4.4097    -6.4081    -3.1455 C.ar   1 <0>      -0.1000
15 C15       5.3416    -7.4008    -3.3839 C.ar   1 <0>      -0.1200
16 C16       5.5994    -8.3537    -2.4163 C.ar   1 <0>      -0.1200
17 C17       4.9256    -8.3136    -1.2099 C.ar   1 <0>      -0.1200
18 C18       3.9967    -7.3184    -0.9698 C.ar   1 <0>      -0.1000
19 C19       2.9546    -1.5777     1.3007 C.2    1 <0>       0.4800
20 O20       3.2279    -2.1501     2.3345 O.2    1 <0>      -0.4400
21 N21       2.1938    -0.4697     1.0469 N.am   1 <0>      -0.4800
22 C22       0.7447    -0.5655     1.2444 C.3    1 <0>       0.0300
23 H23       0.4661    -1.6109     1.3779 H      1 <0>       0.0700
24 C24       0.3544     0.2166     2.4720 C.2    1 <0>       0.5200
25 O25       1.1752     0.9242     3.0305 O.co2  1 <0>      -0.6600
26 O26      -0.7823     0.1417     2.9067 O.co2  1 <0>      -0.6800
27 H27       1.0039     1.9031     0.0027 H      1 <0>       0.0600
28 H28      -0.5459     1.8868    -0.8726 H      1 <0>       0.0600
29 H29      -0.5289     1.8773     0.9072 H      1 <0>       0.0800
30 H30      -1.8805    -0.2180    -1.0232 H      1 <0>       0.0600
31 H31      -1.3658    -1.6638    -0.1215 H      1 <0>       0.0600
32 H32      -2.0023    -0.2497     0.7523 H      1 <0>       0.1000
33 H33       1.7303    -2.9785    -0.9040 H      1 <0>       0.4100
34 H34       1.9530    -5.6625    -1.0015 H      1 <0>       0.1100
35 H35       2.2570    -4.9882    -2.6206 H      1 <0>       0.1100
36 H36       4.2083    -5.6636    -3.9015 H      1 <0>       0.1200
37 H37       5.8681    -7.4321    -4.3264 H      1 <0>       0.1200
38 H38       6.3270    -9.1297    -2.6029 H      1 <0>       0.1200
39 H39       5.1267    -9.0583    -0.4540 H      1 <0>       0.1200
40 H40       3.4703    -7.2871    -0.0273 H      1 <0>       0.1200
@<TRIPOS>BOND
1    1    2 1
2    1   27 1
3    1   28 1
4    1   29 1
5    2   22 1
6    2    3 1
7    2    4 1
8    3   30 1
9    3   31 1
10    3   32 1
11    4    5 1
12    5    6 1
13    5   21 1
14    5    7 1
15    7    8 1
16    7    9 1
17    7   19 1
18    9   10 am
19    9   33 1
20   10   11 2
21   10   12 1
22   12   13 1
23   12   34 1
24   12   35 1
25   13   18 ar
26   13   14 ar
27   14   15 ar
28   14   36 1
29   15   16 ar
30   15   37 1
31   16   17 ar
32   16   38 1
33   17   18 ar
34   17   39 1
35   18   40 1
36   19   20 2
37   19   21 am
38   21   22 1
39   22   23 1
40   22   24 1
41   24   25 ar
42   24   26 ar
