@<TRIPOS>MOLECULE
ZINC000000000596
49    51    1     0     0
SMALL
USER_CHARGES
@<TRIPOS>ATOM
1      C1     -1.3419   -1.2897    2.2351 C.3      1 ZINC000000000596   -0.1500
2      C2     -0.5721   -1.2087    0.9420 C.2      1 ZINC000000000596   -0.0300
3      C3      0.8332   -1.7476    0.8668 C.3      1 ZINC000000000596   -0.1400
4      C4     -1.1247   -0.6700   -0.1165 C.2      1 ZINC000000000596   -0.2600
5      C5     -2.4806   -0.0209   -0.0109 C.3      1 ZINC000000000596    0.0200
6      N6     -3.3933   -0.6318   -0.9865 N.4      1 ZINC000000000596   -0.3700
7      H7     -3.4138   -1.6294   -0.8368 H        1 ZINC000000000596    0.4200
8      C8     -2.8966   -0.3622   -2.3384 C.3      1 ZINC000000000596   -0.0200
9      C9     -2.8622    1.1507   -2.5813 C.3      1 ZINC000000000596   -0.1300
10     C10    -4.3050    1.6751   -2.4647 C.3      1 ZINC000000000596   -0.0200
11     C11    -4.3647    3.1697   -2.7866 C.3      1 ZINC000000000596   -0.1500
12     C12    -5.1514    0.8748   -3.4275 C.ar     1 ZINC000000000596   -0.0600
13     C13    -5.2520    1.3288   -4.7333 C.ar     1 ZINC000000000596   -0.1400
14     C14    -6.0032    0.6273   -5.6624 C.ar     1 ZINC000000000596    0.1200
15     O15    -6.1023    1.0761   -6.9413 O.3      1 ZINC000000000596   -0.4900
16     C16    -6.6533   -0.5365   -5.2785 C.ar     1 ZINC000000000596   -0.1400
17     C17    -6.5539   -0.9807   -3.9774 C.ar     1 ZINC000000000596   -0.0900
18     C18    -5.8077   -0.2723   -3.0423 C.ar     1 ZINC000000000596   -0.1100
19     C19    -5.7768   -0.7978   -1.6324 C.3      1 ZINC000000000596   -0.0900
20     C20    -4.7313   -0.0945   -0.7850 C.3      1 ZINC000000000596    0.0300
21     H21    -4.9855   -0.2644    0.2612 H        1 ZINC000000000596    0.1300
22     C22    -4.7822    1.4108   -1.0323 C.3      1 ZINC000000000596   -0.0900
23     H23    -4.1273    1.9219   -0.3267 H        1 ZINC000000000596    0.1000
24     C24    -6.2172    1.9138   -0.8623 C.3      1 ZINC000000000596   -0.1600
25     H25    -0.7580   -1.8416    2.9716 H        1 ZINC000000000596    0.0800
26     H26    -1.5364   -0.2833    2.6058 H        1 ZINC000000000596    0.0800
27     H27    -2.2881   -1.8028    2.0631 H        1 ZINC000000000596    0.0700
28     H28     0.8048   -2.7967    0.5724 H        1 ZINC000000000596    0.0800
29     H29     1.4014   -1.1789    0.1306 H        1 ZINC000000000596    0.0800
30     H30     1.3099   -1.6568    1.8428 H        1 ZINC000000000596    0.0800
31     H31    -0.6084   -0.6910   -1.0649 H        1 ZINC000000000596    0.1300
32     H32    -2.8749   -0.1646    0.9951 H        1 ZINC000000000596    0.1300
33     H33    -2.3898    1.0457   -0.2166 H        1 ZINC000000000596    0.1400
34     H34    -1.8911   -0.7697   -2.4436 H        1 ZINC000000000596    0.1300
35     H35    -3.5564   -0.8320   -3.0678 H        1 ZINC000000000596    0.1300
36     H36    -2.2327    1.6311   -1.8322 H        1 ZINC000000000596    0.0900
37     H37    -2.4736    1.3562   -3.5787 H        1 ZINC000000000596    0.1100
38     H38    -4.0102    3.3368   -3.8037 H        1 ZINC000000000596    0.0700
39     H39    -5.3933    3.5196   -2.6982 H        1 ZINC000000000596    0.0700
40     H40    -3.7332    3.7175   -2.0871 H        1 ZINC000000000596    0.0700
41     H41    -4.7424    2.2342   -5.0280 H        1 ZINC000000000596    0.1400
42     H42    -5.4174    0.7343   -7.5322 H        1 ZINC000000000596    0.4000
43     H43    -7.2362   -1.0931   -5.9974 H        1 ZINC000000000596    0.1400
44     H44    -7.0608   -1.8873   -3.6814 H        1 ZINC000000000596    0.1300
45     H45    -6.7572   -0.6523   -1.1788 H        1 ZINC000000000596    0.1200
46     H46    -5.5546   -1.8646   -1.6569 H        1 ZINC000000000596    0.0900
47     H47    -6.5585    1.7027    0.1511 H        1 ZINC000000000596    0.0700
48     H48    -6.2488    2.9888   -1.0398 H        1 ZINC000000000596    0.0800
49     H49    -6.8665    1.4083   -1.5771 H        1 ZINC000000000596    0.0700
@<TRIPOS>BOND
1     1     2     1
2     1     25    1
3     1     26    1
4     1     27    1
5     2     3     1
6     2     4     2
7     3     28    1
8     3     29    1
9     3     30    1
10    4     5     1
11    4     31    1
12    5     6     1
13    5     32    1
14    5     33    1
15    6     7     1
16    6     20    1
17    6     8     1
18    8     9     1
19    8     34    1
20    8     35    1
21    9     10    1
22    9     36    1
23    9     37    1
24    10    22    1
25    10    11    1
26    10    12    1
27    11    38    1
28    11    39    1
29    11    40    1
30    12    18    ar
31    12    13    ar
32    13    14    ar
33    13    41    1
34    14    15    1
35    14    16    ar
36    15    42    1
37    16    17    ar
38    16    43    1
39    17    18    ar
40    17    44    1
41    18    19    1
42    19    20    1
43    19    45    1
44    19    46    1
45    20    21    1
46    20    22    1
47    22    23    1
48    22    24    1
49    24    47    1
50    24    48    1
51    24    49    1
@<TRIPOS>SUBSTRUCTURE
1   ZINC000000000596 1     RESIDUE    1   A     ZIN   1
