@<TRIPOS>MOLECULE
ZINC000003818726
35   36    0    0    0
SMALL
USER_CHARGES
NO_NAME
@<TRIPOS>ATOM
1 O1        0.0021    -0.0041     0.0020 O.2    1 <0>      -0.5300
2 C2       -0.0144     1.2128     0.0087 C.2    1 <0>       0.5600
3 C3        1.2436     1.9621     0.0007 C.2    1 <0>      -0.2300
4 C4        2.4200     1.3040    -0.0140 C.2    1 <0>       0.0200
5 C5        3.6847     2.0573    -0.0221 C.ar   1 <0>      -0.1200
6 C6        3.6700     3.4554    -0.0086 C.ar   1 <0>      -0.0600
7 C7        4.8590     4.1540    -0.0163 C.ar   1 <0>      -0.1500
8 C8        6.0645     3.4749    -0.0373 C.ar   1 <0>      -0.0100
9 C9        6.0874     2.0909    -0.0507 C.ar   1 <0>      -0.6200
10 S10       7.6289     1.2378    -0.0773 S.o2   1 <0>       2.6000
11 O11       7.3681    -0.0448    -0.6308 O.2    1 <0>      -1.0300
12 O12       8.5785     2.1420    -0.6247 O.2    1 <0>      -1.0300
13 N13       8.0767     0.9854     1.4969 N.pl3  1 <0>      -1.0900
14 C14       9.2721     0.3230     1.7853 C.ar   1 <0>       0.2800
15 C15      10.0892    -0.1198     0.7528 C.ar   1 <0>      -0.2700
16 C16      11.2707    -0.7740     1.0415 C.ar   1 <0>      -0.0700
17 C17      11.6404    -0.9890     2.3566 C.ar   1 <0>      -0.2300
18 C18      10.8293    -0.5495     3.3868 C.ar   1 <0>      -0.0800
19 C19       9.6493     0.1104     3.1052 C.ar   1 <0>      -0.1800
20 C20       4.9072     1.3782    -0.0374 C.ar   1 <0>       0.0100
21 N21      -1.1906     1.8707     0.0179 N.am   1 <0>      -0.6000
22 O22      -2.4072     1.1461     0.0197 O.3    1 <0>      -0.3200
23 H23       1.2289     3.0420     0.0067 H      1 <0>       0.1300
24 H24       2.4347     0.2241    -0.0200 H      1 <0>       0.1400
25 H25       2.7299     3.9867     0.0074 H      1 <0>       0.1300
26 H26       4.8493     5.2339    -0.0063 H      1 <0>       0.1300
27 H27       6.9924     4.0275    -0.0436 H      1 <0>       0.1400
28 H28       9.8007     0.0471    -0.2745 H      1 <0>       0.1000
29 H29      11.9064    -1.1185     0.2393 H      1 <0>       0.1000
30 H30      12.5645    -1.5015     2.5795 H      1 <0>       0.1000
31 H31      11.1210    -0.7190     4.4127 H      1 <0>       0.1000
32 H32       9.0164     0.4537     3.9102 H      1 <0>       0.1100
33 H33       4.9267     0.2984    -0.0475 H      1 <0>       0.1400
34 H34      -1.2038     2.8406     0.0232 H      1 <0>       0.4100
35 H35      -3.1972     1.7038     0.0265 H      1 <0>       0.3900
@<TRIPOS>BOND
1    1    2 2
2    2    3 1
3    2   21 am
4    3    4 2
5    3   23 1
6    4    5 1
7    4   24 1
8    5   20 ar
9    5    6 ar
10    6    7 ar
11    6   25 1
12    7    8 ar
13    7   26 1
14    8    9 ar
15    8   27 1
16    9   10 1
17    9   20 ar
18   10   11 2
19   10   12 2
20   10   13 1
21   13   14 1
22   14   19 ar
23   14   15 ar
24   15   16 ar
25   15   28 1
26   16   17 ar
27   16   29 1
28   17   18 ar
29   17   30 1
30   18   19 ar
31   18   31 1
32   19   32 1
33   20   33 1
34   21   22 1
35   21   34 1
36   22   35 1
