@<TRIPOS>MOLECULE
ZINC000001529425
22   21    0    0    0
SMALL
USER_CHARGES
NO_NAME
@<TRIPOS>ATOM
1 N1       -0.0116     1.0048     0.0076 N.4    1 <0>      -0.6400
2 H2        0.0021    -0.0041     0.0020 H      1 <0>       0.4300
3 H3        0.9350     1.3541     0.0004 H      1 <0>       0.4300
4 H4       -0.4996     1.3391    -0.8099 H      1 <0>       0.4300
5 C5       -0.6992     1.4786     1.2162 C.3    1 <0>      -0.0100
6 C6       -0.7199     3.0084     1.2246 C.3    1 <0>      -0.1500
7 C7       -1.4361     3.5018     2.4834 C.3    1 <0>      -0.1200
8 C8       -1.4568     5.0317     2.4918 C.3    1 <0>      -0.0900
9 C9       -2.1730     5.5251     3.7506 C.3    1 <0>      -0.1900
10 C10      -2.1934     7.0319     3.7589 C.2    1 <0>       0.4900
11 O11      -1.6825     7.6536     2.8429 O.co2  1 <0>      -0.7000
12 O12      -2.7208     7.6294     4.6816 O.co2  1 <0>      -0.7000
13 H13      -1.7218     1.1013     1.2239 H      1 <0>       0.1300
14 H14      -0.1720     1.1175     2.0992 H      1 <0>       0.1300
15 H15       0.3027     3.3857     1.2169 H      1 <0>       0.0900
16 H16      -1.2471     3.3695     0.3415 H      1 <0>       0.0900
17 H17      -2.4587     3.1245     2.4911 H      1 <0>       0.0700
18 H18      -0.9089     3.1407     3.3665 H      1 <0>       0.0700
19 H19      -0.4342     5.4089     2.4841 H      1 <0>       0.0600
20 H20      -1.9840     5.3927     1.6087 H      1 <0>       0.0600
21 H21      -3.1956     5.1478     3.7584 H      1 <0>       0.0600
22 H22      -1.6458     5.1640     4.6337 H      1 <0>       0.0600
@<TRIPOS>BOND
1    1    2 1
2    1    3 1
3    1    4 1
4    1    5 1
5    5    6 1
6    5   13 1
7    5   14 1
8    6    7 1
9    6   15 1
10    6   16 1
11    7    8 1
12    7   17 1
13    7   18 1
14    8    9 1
15    8   19 1
16    8   20 1
17    9   10 1
18    9   21 1
19    9   22 1
20   10   11 ar
21   10   12 ar
