@<TRIPOS>MOLECULE
ZINC000000896709
37    38    1     0     0
SMALL
USER_CHARGES
@<TRIPOS>ATOM
1      C1     -0.3225    1.4607    0.7525 C.3      1 ZINC000000896709    0.0300
2      O2     -0.1811    0.0451    0.4620 O.3      1 ZINC000000896709   -0.3600
3      C3     -1.3120   -0.6609    0.3058 C.2      1 ZINC000000896709    0.4600
4      O4     -2.3846   -0.1142    0.4085 O.2      1 ZINC000000896709   -0.4600
5      C5     -1.2439   -2.1355    0.0025 C.3      1 ZINC000000896709   -0.0500
6      H6     -0.7224   -2.6489    0.8103 H        1 ZINC000000896709    0.1400
7      C7     -2.6405   -2.6873   -0.1244 C.ar     1 ZINC000000896709   -0.1400
8      C8     -3.4532   -2.2787   -1.1653 C.ar     1 ZINC000000896709   -0.1000
9      C9     -4.7343   -2.7848   -1.2817 C.ar     1 ZINC000000896709   -0.1100
10     C10    -5.2026   -3.6999   -0.3574 C.ar     1 ZINC000000896709   -0.0900
11     C11    -4.3896   -4.1091    0.6830 C.ar     1 ZINC000000896709   -0.1100
12     C12    -3.1070   -3.6063    0.7969 C.ar     1 ZINC000000896709   -0.1000
13     C13    -0.4889   -2.3518   -1.3106 C.3      1 ZINC000000896709    0.0400
14     H14    -0.9521   -1.7568   -2.0977 H        1 ZINC000000896709    0.1400
15     C15     0.9689   -1.9204   -1.1369 C.3      1 ZINC000000896709   -0.1500
16     C16     1.7203   -2.1384   -2.4534 C.3      1 ZINC000000896709   -0.1400
17     C17     1.5949   -3.6084   -2.8640 C.3      1 ZINC000000896709   -0.1500
18     C18     0.1139   -3.9772   -2.9737 C.3      1 ZINC000000896709   -0.0100
19     N19    -0.5418   -3.7723   -1.6765 N.4      1 ZINC000000896709   -0.5000
20     H20    -0.0693   -4.3185   -0.9719 H        1 ZINC000000896709    0.4300
21     H21    -1.5053   -4.0654   -1.7377 H        1 ZINC000000896709    0.4300
22     H22     0.6648    1.9110    0.8546 H        1 ZINC000000896709    0.1100
23     H23    -0.8611    1.9465   -0.0612 H        1 ZINC000000896709    0.0700
24     H24    -0.8775    1.5871    1.6821 H        1 ZINC000000896709    0.0700
25     H25    -3.0874   -1.5638   -1.8874 H        1 ZINC000000896709    0.1200
26     H26    -5.3695   -2.4650   -2.0945 H        1 ZINC000000896709    0.1300
27     H27    -6.2037   -4.0947   -0.4479 H        1 ZINC000000896709    0.1300
28     H28    -4.7555   -4.8238    1.4053 H        1 ZINC000000896709    0.1400
29     H29    -2.4718   -3.9260    1.6098 H        1 ZINC000000896709    0.1300
30     H30     1.0066   -0.8651   -0.8668 H        1 ZINC000000896709    0.1300
31     H31     1.4332   -2.5150   -0.3502 H        1 ZINC000000896709    0.0900
32     H32     1.2885   -1.5054   -3.2286 H        1 ZINC000000896709    0.0800
33     H33     2.7721   -1.8860   -2.3189 H        1 ZINC000000896709    0.1000
34     H34     2.0800   -3.7596   -3.8283 H        1 ZINC000000896709    0.1100
35     H35     2.0721   -4.2380   -2.1131 H        1 ZINC000000896709    0.0900
36     H36    -0.3623   -3.3472   -3.7250 H        1 ZINC000000896709    0.1300
37     H37     0.0210   -5.0231   -3.2660 H        1 ZINC000000896709    0.1400
@<TRIPOS>BOND
1     1     2     1
2     1     22    1
3     1     23    1
4     1     24    1
5     2     3     1
6     3     4     2
7     3     5     1
8     5     6     1
9     5     7     1
10    5     13    1
11    7     12    ar
12    7     8     ar
13    8     9     ar
14    8     25    1
15    9     10    ar
16    9     26    1
17    10    11    ar
18    10    27    1
19    11    12    ar
20    11    28    1
21    12    29    1
22    13    14    1
23    13    19    1
24    13    15    1
25    15    16    1
26    15    30    1
27    15    31    1
28    16    17    1
29    16    32    1
30    16    33    1
31    17    18    1
32    17    34    1
33    17    35    1
34    18    19    1
35    18    36    1
36    18    37    1
37    19    20    1
38    19    21    1
@<TRIPOS>SUBSTRUCTURE
1   ZINC000000896709 1     RESIDUE    1   A     ZIN   1
