@<TRIPOS>MOLECULE
ZINC000001530710
19    19    1     0     0
SMALL
USER_CHARGES
@<TRIPOS>ATOM
1      C1     -0.0178    1.4608    0.0101 C.3      1 ZINC000001530710    0.0800
2      N2      0.0021   -0.0041    0.0020 N.am     1 ZINC000001530710   -0.5900
3      C3      0.0076   -0.7530   -1.1072 C.2      1 ZINC000001530710    0.6500
4      O4     -0.0034   -0.2944   -2.2318 O.2      1 ZINC000001530710   -0.4700
5      O5      0.0271   -2.0683   -0.8372 O.3      1 ZINC000001530710   -0.3000
6      C6      0.0354   -2.2030    0.6161 C.3      1 ZINC000001530710    0.0600
7      C7     -1.2103   -2.9521    1.0937 C.3      1 ZINC000001530710   -0.1500
8      C8      1.3039   -2.9204    1.0822 C.3      1 ZINC000001530710   -0.1500
9      C9      0.0230   -0.7705    1.1109 C.2      1 ZINC000001530710    0.5100
10     O10     0.0250   -0.3929    2.2629 O.2      1 ZINC000001530710   -0.4400
11     H11     1.0048    1.8381    0.0023 H        1 ZINC000001530710    0.0800
12     H12    -0.5450    1.8219   -0.8730 H        1 ZINC000001530710    0.1000
13     H13    -0.5280    1.8123    0.9069 H        1 ZINC000001530710    0.0900
14     H14    -1.2168   -3.9552    0.6672 H        1 ZINC000001530710    0.0900
15     H15    -1.1987   -3.0199    2.1815 H        1 ZINC000001530710    0.1000
16     H16    -2.1027   -2.4149    0.7725 H        1 ZINC000001530710    0.0700
17     H17     2.1795   -2.3609    0.7530 H        1 ZINC000001530710    0.0700
18     H18     1.3040   -2.9883    2.1701 H        1 ZINC000001530710    0.1000
19     H19     1.3318   -3.9230    0.6556 H        1 ZINC000001530710    0.0900
@<TRIPOS>BOND
1     1     2     1
2     1     11    1
3     1     12    1
4     1     13    1
5     2     9     am
6     2     3     am
7     3     4     2
8     3     5     1
9     5     6     1
10    6     7     1
11    6     8     1
12    6     9     1
13    7     14    1
14    7     15    1
15    7     16    1
16    8     17    1
17    8     18    1
18    8     19    1
19    9     10    2
@<TRIPOS>SUBSTRUCTURE
1   ZINC000001530710 1     RESIDUE    1   A     ZIN   1
