@<TRIPOS>MOLECULE
ZINC000003875392
51    53    1     0     0
SMALL
USER_CHARGES
@<TRIPOS>ATOM
1      C1     -0.0173    1.4248    0.0099 C.3      1 ZINC000003875392    0.0200
2      O2      0.0021   -0.0041    0.0020 O.3      1 ZINC000003875392   -0.3000
3      C3      0.6062   -0.6075   -1.0564 C.ar     1 ZINC000003875392    0.1400
4      C4      1.1727    0.1559   -2.0618 C.ar     1 ZINC000003875392   -0.1700
5      C5      1.7889   -0.4559   -3.1427 C.ar     1 ZINC000003875392   -0.0800
6      C6      1.8394   -1.8315   -3.2218 C.ar     1 ZINC000003875392   -0.1300
7      C7      1.2742   -2.6010   -2.2145 C.ar     1 ZINC000003875392   -0.1500
8      C8      0.6629   -1.9963   -1.1311 C.ar     1 ZINC000003875392    0.1200
9      O9      0.1106   -2.7558   -0.1475 O.3      1 ZINC000003875392   -0.3000
10     C10     0.1977   -4.1743   -0.2969 C.3      1 ZINC000003875392    0.0200
11     C11     2.4927   -2.5369   -4.3803 C.3      1 ZINC000003875392    0.1000
12     H12     1.7222   -2.9028   -5.0589 H        1 ZINC000003875392    0.1500
13     C13     3.3077   -3.7250   -3.8534 C.3      1 ZINC000003875392   -0.1900
14     C14     4.0251   -4.3616   -5.0257 C.2      1 ZINC000003875392    0.3500
15     O15     3.9954   -5.5557   -5.2033 O.2      1 ZINC000003875392   -0.3900
16     C16     4.7806   -3.4471   -5.9676 C.3      1 ZINC000003875392   -0.1600
17     H17     5.0630   -3.9963   -6.8658 H        1 ZINC000003875392    0.1500
18     C18     6.0350   -2.9132   -5.2732 C.3      1 ZINC000003875392   -0.1200
19     C19     6.9912   -4.0725   -4.9856 C.3      1 ZINC000003875392   -0.1000
20     C20     7.4823   -4.6682   -6.3066 C.3      1 ZINC000003875392   -0.1600
21     C21     8.1875   -3.5594   -4.1816 C.3      1 ZINC000003875392   -0.1500
22     C22     3.8599   -2.2804   -6.3429 C.3      1 ZINC000003875392    0.0000
23     N23     3.3875   -1.6351   -5.1076 N.4      1 ZINC000003875392   -0.3800
24     H24     4.1801   -1.3917   -4.5326 H        1 ZINC000003875392    0.4300
25     C25     2.6408   -0.4163   -5.4506 C.3      1 ZINC000003875392   -0.0100
26     C26     2.3964    0.4133   -4.2144 C.3      1 ZINC000003875392   -0.1000
27     H27     1.0053    1.8021    0.0021 H        1 ZINC000003875392    0.0600
28     H28    -0.5445    1.7859   -0.8732 H        1 ZINC000003875392    0.0600
29     H29    -0.5275    1.7763    0.9067 H        1 ZINC000003875392    0.1100
30     H30     1.1344    1.2337   -2.0045 H        1 ZINC000003875392    0.1500
31     H31     1.3149   -3.6786   -2.2753 H        1 ZINC000003875392    0.1500
32     H32    -0.3054   -4.4744   -1.2160 H        1 ZINC000003875392    0.0600
33     H33     1.2455   -4.4712   -0.3427 H        1 ZINC000003875392    0.0600
34     H34    -0.2804   -4.6593    0.5541 H        1 ZINC000003875392    0.1100
35     H35     4.0363   -3.3759   -3.1217 H        1 ZINC000003875392    0.1300
36     H36     2.6406   -4.4526   -3.3910 H        1 ZINC000003875392    0.1400
37     H37     6.5278   -2.1878   -5.9205 H        1 ZINC000003875392    0.1000
38     H38     5.7548   -2.4324   -4.3360 H        1 ZINC000003875392    0.0700
39     H39     6.4703   -4.8395   -4.4125 H        1 ZINC000003875392    0.0700
40     H40     8.0032   -3.9011   -6.8797 H        1 ZINC000003875392    0.0600
41     H41     8.1635   -5.4940   -6.1017 H        1 ZINC000003875392    0.0700
42     H42     6.6300   -5.0337   -6.8794 H        1 ZINC000003875392    0.0600
43     H43     7.8377   -3.1350   -3.2405 H        1 ZINC000003875392    0.0600
44     H44     8.8688   -4.3853   -3.9767 H        1 ZINC000003875392    0.0700
45     H45     8.7084   -2.7923   -4.7547 H        1 ZINC000003875392    0.0600
46     H46     4.4142   -1.5583   -6.9424 H        1 ZINC000003875392    0.1500
47     H47     3.0130   -2.6559   -6.9173 H        1 ZINC000003875392    0.1400
48     H48     3.2101    0.1701   -6.1719 H        1 ZINC000003875392    0.1400
49     H49     1.6753   -0.6873   -5.8776 H        1 ZINC000003875392    0.1300
50     H50     1.7180    1.2318   -4.4552 H        1 ZINC000003875392    0.1300
51     H51     3.3426    0.8202   -3.8578 H        1 ZINC000003875392    0.1000
@<TRIPOS>BOND
1     1     2     1
2     1     27    1
3     1     28    1
4     1     29    1
5     2     3     1
6     3     8     ar
7     3     4     ar
8     4     5     ar
9     4     30    1
10    5     26    1
11    5     6     ar
12    6     7     ar
13    6     11    1
14    7     8     ar
15    7     31    1
16    8     9     1
17    9     10    1
18    10    32    1
19    10    33    1
20    10    34    1
21    11    12    1
22    11    23    1
23    11    13    1
24    13    14    1
25    13    35    1
26    13    36    1
27    14    15    2
28    14    16    1
29    16    17    1
30    16    18    1
31    16    22    1
32    18    19    1
33    18    37    1
34    18    38    1
35    19    20    1
36    19    21    1
37    19    39    1
38    20    40    1
39    20    41    1
40    20    42    1
41    21    43    1
42    21    44    1
43    21    45    1
44    22    23    1
45    22    46    1
46    22    47    1
47    23    24    1
48    23    25    1
49    25    26    1
50    25    48    1
51    25    49    1
52    26    50    1
53    26    51    1
@<TRIPOS>SUBSTRUCTURE
1   ZINC000003875392 1     RESIDUE    1   A     ZIN   1
