@<TRIPOS>MOLECULE
ZINC000019796087
64    66    1     0     0
SMALL
USER_CHARGES
@<TRIPOS>ATOM
1      C1      2.2917    2.0470   -0.1304 C.3      1 ZINC000019796087    0.0300
2      O2      1.9550    0.7402   -0.6002 O.3      1 ZINC000019796087   -0.3500
3      C3      2.5614   -0.3032    0.0037 C.2      1 ZINC000019796087    0.5300
4      O4      3.3549   -0.1071    0.9052 O.2      1 ZINC000019796087   -0.4900
5      C5      2.2748   -1.6244   -0.4110 C.2      1 ZINC000019796087   -0.2300
6      C6      2.7982   -2.0804   -1.5622 C.2      1 ZINC000019796087    0.1900
7      C7      3.6711   -1.1754   -2.3929 C.3      1 ZINC000019796087   -0.1400
8      N8      2.5485   -3.3562   -1.9886 N.pl3    1 ZINC000019796087   -0.6300
9      C9      2.0786   -4.2970   -1.1133 C.2      1 ZINC000019796087    0.2400
10     C10     2.1831   -5.7587   -1.4648 C.3      1 ZINC000019796087   -0.1200
11     C11     1.5244   -3.9334    0.0562 C.2      1 ZINC000019796087   -0.2600
12     C12     1.0562   -4.9329    0.9403 C.2      1 ZINC000019796087    0.5200
13     O13     1.2740   -6.1062    0.7023 O.2      1 ZINC000019796087   -0.5200
14     O14     0.3680   -4.5855    2.0479 O.3      1 ZINC000019796087   -0.3400
15     C15     0.0458   -5.6318    2.9663 C.3      1 ZINC000019796087    0.0700
16     C16    -0.8677   -5.0833    4.0643 C.3      1 ZINC000019796087    0.0500
17     N17    -2.2406   -4.9790    3.5522 N.3      1 ZINC000019796087   -0.5300
18     C18    -2.8299   -6.3095    3.3511 C.3      1 ZINC000019796087    0.0200
19     C19    -3.0748   -4.1632    4.4448 C.3      1 ZINC000019796087    0.0900
20     C20    -4.4549   -4.0250    3.8554 C.ar     1 ZINC000019796087   -0.0800
21     C21    -4.7058   -3.0546    2.9034 C.ar     1 ZINC000019796087   -0.0900
22     C22    -5.9717   -2.9278    2.3628 C.ar     1 ZINC000019796087   -0.1100
23     C23    -6.9866   -3.7717    2.7738 C.ar     1 ZINC000019796087   -0.1200
24     C24    -6.7353   -4.7426    3.7251 C.ar     1 ZINC000019796087   -0.1200
25     C25    -5.4684   -4.8722    4.2626 C.ar     1 ZINC000019796087   -0.1100
26     C26     1.3970   -2.4901    0.4475 C.3      1 ZINC000019796087    0.0900
27     H27     1.6817   -2.3754    1.4934 H        1 ZINC000019796087    0.1000
28     C28    -0.0346   -2.0530    0.2723 C.ar     1 ZINC000019796087   -0.0700
29     C29    -0.6918   -2.3003   -0.9181 C.ar     1 ZINC000019796087   -0.0500
30     C30    -2.0052   -1.8993   -1.0789 C.ar     1 ZINC000019796087   -0.1100
31     C31    -2.6609   -1.2515   -0.0490 C.ar     1 ZINC000019796087   -0.0600
32     C32    -2.0037   -1.0049    1.1421 C.ar     1 ZINC000019796087   -0.0400
33     N33    -2.7059   -0.3107    2.2448 N.pl3    1 ZINC000019796087    0.0300
34     O34    -3.8825   -0.0182    2.1290 O.2      1 ZINC000019796087   -0.1600
35     O35    -2.1070   -0.0321    3.2682 O.2      1 ZINC000019796087   -0.1600
36     C36    -0.6922   -1.4097    1.3043 C.ar     1 ZINC000019796087   -0.0300
37     H37     2.0355    2.1306    0.9258 H        1 ZINC000019796087    0.0600
38     H38     3.3610    2.2151   -0.2592 H        1 ZINC000019796087    0.0600
39     H39     1.7356    2.7922   -0.6993 H        1 ZINC000019796087    0.1000
40     H40     4.7176   -1.3512   -2.1438 H        1 ZINC000019796087    0.0900
41     H41     3.5091   -1.3848   -3.4503 H        1 ZINC000019796087    0.0900
42     H42     3.4179   -0.1357   -2.1854 H        1 ZINC000019796087    0.0900
43     H43     2.7050   -3.5948   -2.9157 H        1 ZINC000019796087    0.4200
44     H44     2.6547   -5.8646   -2.4418 H        1 ZINC000019796087    0.0700
45     H45     2.7843   -6.2709   -0.7136 H        1 ZINC000019796087    0.1100
46     H46     1.1858   -6.1978   -1.4932 H        1 ZINC000019796087    0.1000
47     H47    -0.4652   -6.4357    2.4365 H        1 ZINC000019796087    0.0700
48     H48     0.9618   -6.0168    3.4144 H        1 ZINC000019796087    0.0700
49     H49    -0.8498   -5.7561    4.9216 H        1 ZINC000019796087    0.0600
50     H50    -0.5177   -4.0970    4.3691 H        1 ZINC000019796087    0.0900
51     H51    -2.8507   -6.8450    4.3002 H        1 ZINC000019796087    0.0300
52     H52    -3.8462   -6.2031    2.9717 H        1 ZINC000019796087    0.0700
53     H53    -2.2302   -6.8675    2.6321 H        1 ZINC000019796087    0.0700
54     H54    -3.1428   -4.6454    5.4199 H        1 ZINC000019796087    0.0400
55     H55    -2.6275   -3.1756    4.5581 H        1 ZINC000019796087    0.0800
56     H56    -3.9130   -2.3953    2.5823 H        1 ZINC000019796087    0.1100
57     H57    -6.1680   -2.1692    1.6195 H        1 ZINC000019796087    0.1200
58     H58    -7.9758   -3.6722    2.3519 H        1 ZINC000019796087    0.1200
59     H59    -7.5283   -5.4017    4.0465 H        1 ZINC000019796087    0.1200
60     H60    -5.2721   -5.6308    5.0059 H        1 ZINC000019796087    0.1200
61     H61    -0.1794   -2.8065   -1.7229 H        1 ZINC000019796087    0.1300
62     H62    -2.5185   -2.0918   -2.0094 H        1 ZINC000019796087    0.1400
63     H63    -3.6866   -0.9376   -0.1749 H        1 ZINC000019796087    0.1500
64     H64    -0.1788   -1.2171    2.2348 H        1 ZINC000019796087    0.1500
@<TRIPOS>BOND
1     1     2     1
2     1     37    1
3     1     38    1
4     1     39    1
5     2     3     1
6     3     4     2
7     3     5     1
8     5     26    1
9     5     6     2
10    6     7     1
11    6     8     1
12    7     40    1
13    7     41    1
14    7     42    1
15    8     9     1
16    8     43    1
17    9     10    1
18    9     11    2
19    10    44    1
20    10    45    1
21    10    46    1
22    11    12    1
23    11    26    1
24    12    13    2
25    12    14    1
26    14    15    1
27    15    16    1
28    15    47    1
29    15    48    1
30    16    17    1
31    16    49    1
32    16    50    1
33    17    18    1
34    17    19    1
35    18    51    1
36    18    52    1
37    18    53    1
38    19    20    1
39    19    54    1
40    19    55    1
41    20    25    ar
42    20    21    ar
43    21    22    ar
44    21    56    1
45    22    23    ar
46    22    57    1
47    23    24    ar
48    23    58    1
49    24    25    ar
50    24    59    1
51    25    60    1
52    26    27    1
53    26    28    1
54    28    36    ar
55    28    29    ar
56    29    30    ar
57    29    61    1
58    30    31    ar
59    30    62    1
60    31    32    ar
61    31    63    1
62    32    33    1
63    32    36    ar
64    33    34    2
65    33    35    2
66    36    64    1
@<TRIPOS>SUBSTRUCTURE
1   ZINC000019796087 1     RESIDUE    1   A     ZIN   1
