@<TRIPOS>MOLECULE
ZINC000003079342
25    24    1     0     0
SMALL
USER_CHARGES
@<TRIPOS>ATOM
1      C1      0.5391    1.3273   -0.0168 C.3      1 ZINC000003079342   -0.0600
2      N2      0.0233   -0.0468    0.0451 N.4      1 ZINC000003079342   -0.2700
3      C3      0.5135   -0.6992    1.2666 C.3      1 ZINC000003079342   -0.0500
4      C4     -1.4453   -0.0183    0.0608 C.3      1 ZINC000003079342   -0.0500
5      C5      0.4861   -0.7969   -1.1301 C.3      1 ZINC000003079342    0.0000
6      C6      2.0121   -0.7246   -1.2129 C.3      1 ZINC000003079342    0.0500
7      O7      2.5924   -1.4613   -0.1044 O.3      1 ZINC000003079342   -0.3800
8      C8      3.9363   -1.4961   -0.0304 C.2      1 ZINC000003079342    0.6500
9      N9      4.5389   -2.1628    0.9740 N.am     1 ZINC000003079342   -0.8200
10     O10     4.6059   -0.9264   -0.8692 O.2      1 ZINC000003079342   -0.5600
11     H11     1.6288    1.3062   -0.0284 H        1 ZINC000003079342    0.1200
12     H12     0.1754    1.8114   -0.9232 H        1 ZINC000003079342    0.1300
13     H13     0.1957    1.8839    0.8552 H        1 ZINC000003079342    0.1300
14     H14     0.0315   -0.2518    2.1359 H        1 ZINC000003079342    0.1200
15     H15     0.2798   -1.7632    1.2291 H        1 ZINC000003079342    0.1200
16     H16     1.5928   -0.5666    1.3413 H        1 ZINC000003079342    0.1300
17     H17    -1.8090    0.4658   -0.8456 H        1 ZINC000003079342    0.1200
18     H18    -1.8280   -1.0379    0.1068 H        1 ZINC000003079342    0.1200
19     H19    -1.7887    0.5383    0.9328 H        1 ZINC000003079342    0.1200
20     H20     0.1759   -1.8381   -1.0417 H        1 ZINC000003079342    0.1400
21     H21     0.0524   -0.3638   -2.0314 H        1 ZINC000003079342    0.1500
22     H22     2.3460   -1.1615   -2.1540 H        1 ZINC000003079342    0.1200
23     H23     2.3297    0.3169   -1.1629 H        1 ZINC000003079342    0.1000
24     H24     4.0043   -2.6176    1.6436 H        1 ZINC000003079342    0.4100
25     H25     5.5071   -2.1879    1.0274 H        1 ZINC000003079342    0.4400
@<TRIPOS>BOND
1     1     2     1
2     1     11    1
3     1     12    1
4     1     13    1
5     2     3     1
6     2     4     1
7     2     5     1
8     3     14    1
9     3     15    1
10    3     16    1
11    4     17    1
12    4     18    1
13    4     19    1
14    5     6     1
15    5     20    1
16    5     21    1
17    6     7     1
18    6     22    1
19    6     23    1
20    7     8     1
21    8     9     am
22    8     10    2
23    9     24    1
24    9     25    1
@<TRIPOS>SUBSTRUCTURE
1   ZINC000003079342 1     RESIDUE    1   A     ZIN   1
