@<TRIPOS>MOLECULE
ZINC000022065398
51    54    1     0     0
SMALL
USER_CHARGES
@<TRIPOS>ATOM
1      C1      0.0180   -1.1779   -0.0044 C.1      1 ZINC000022065398   -0.1900
2      C2      0.0021   -0.0041    0.0020 C.1      1 ZINC000022065398   -0.2000
3      C3     -0.0179    1.4678    0.0101 C.3      1 ZINC000022065398    0.2400
4      O4     -0.7157    1.9425    1.1633 O.3      1 ZINC000022065398   -0.5400
5      C5     -0.6907    1.9948   -1.2712 C.3      1 ZINC000022065398   -0.1500
6      C6      0.3552    2.8809   -1.9865 C.3      1 ZINC000022065398   -0.1200
7      C7      1.3098    3.2962   -0.8514 C.3      1 ZINC000022065398   -0.0700
8      H8      0.8378    4.0781   -0.2564 H        1 ZINC000022065398    0.0800
9      C9      2.6372    3.7993   -1.3683 C.3      1 ZINC000022065398   -0.0700
10     H10     3.2266    4.1642   -0.5271 H        1 ZINC000022065398    0.0700
11     C11     2.4058    4.9554   -2.3474 C.3      1 ZINC000022065398   -0.1100
12     C12     3.7524    5.5773   -2.7223 C.3      1 ZINC000022065398   -0.1000
13     C13     4.6544    4.4866   -3.2708 C.2      1 ZINC000022065398   -0.0300
14     C14     5.2742    4.7162   -4.4277 C.2      1 ZINC000022065398   -0.2400
15     C15     6.1691    3.7012   -4.9942 C.2      1 ZINC000022065398    0.3900
16     O16     6.4466    3.6815   -6.1752 O.2      1 ZINC000022065398   -0.4600
17     C17     6.7292    2.6783   -4.0253 C.3      1 ZINC000022065398   -0.1700
18     C18     5.5569    2.1230   -3.2178 C.3      1 ZINC000022065398   -0.1100
19     C19     4.8086    3.2220   -2.4837 C.3      1 ZINC000022065398   -0.0600
20     H20     5.3670    3.4651   -1.5797 H        1 ZINC000022065398    0.0900
21     C21     3.4223    2.6999   -2.0793 C.3      1 ZINC000022065398   -0.0700
22     H22     2.8898    2.3496   -2.9635 H        1 ZINC000022065398    0.0800
23     C23     3.6079    1.5389   -1.0946 C.3      1 ZINC000022065398   -0.1200
24     C24     2.2371    0.9717   -0.7393 C.3      1 ZINC000022065398   -0.1100
25     C25     1.4326    2.0208   -0.0008 C.3      1 ZINC000022065398   -0.0200
26     C26     1.9749    2.2665    1.4086 C.3      1 ZINC000022065398   -0.0900
27     C27     1.9338    0.9612    2.2056 C.3      1 ZINC000022065398   -0.1500
28     H28     0.0322   -2.2278   -0.0102 H        1 ZINC000022065398    0.2200
29     H29    -1.6327    1.6411    1.2198 H        1 ZINC000022065398    0.3800
30     H30    -0.9757    1.1614   -1.9132 H        1 ZINC000022065398    0.0700
31     H31    -1.5692    2.5870   -1.0151 H        1 ZINC000022065398    0.0800
32     H32     0.8879    2.3087   -2.7461 H        1 ZINC000022065398    0.0700
33     H33    -0.1209    3.7566   -2.4275 H        1 ZINC000022065398    0.0700
34     H34     1.9162    4.5791   -3.2456 H        1 ZINC000022065398    0.0700
35     H35     1.7749    5.7097   -1.8772 H        1 ZINC000022065398    0.0700
36     H36     3.6023    6.3444   -3.4820 H        1 ZINC000022065398    0.0800
37     H37     4.2100    6.0199   -1.8374 H        1 ZINC000022065398    0.0800
38     H38     5.1176    5.6493   -4.9485 H        1 ZINC000022065398    0.1300
39     H39     7.2140    1.8726   -4.5765 H        1 ZINC000022065398    0.0900
40     H40     7.4464    3.1550   -3.3571 H        1 ZINC000022065398    0.1000
41     H41     4.8689    1.6150   -3.8936 H        1 ZINC000022065398    0.0700
42     H42     5.9349    1.4039   -2.4911 H        1 ZINC000022065398    0.0800
43     H43     4.2163    0.7616   -1.5569 H        1 ZINC000022065398    0.0700
44     H44     4.0988    1.9010   -0.1913 H        1 ZINC000022065398    0.0700
45     H45     1.7326    0.6529   -1.6513 H        1 ZINC000022065398    0.0700
46     H46     2.3634    0.1129   -0.0800 H        1 ZINC000022065398    0.0700
47     H47     3.0036    2.6213    1.3453 H        1 ZINC000022065398    0.0600
48     H48     1.3619    3.0167    1.9082 H        1 ZINC000022065398    0.0700
49     H49     2.3202    1.1362    3.2097 H        1 ZINC000022065398    0.0500
50     H50     0.9051    0.6063    2.2689 H        1 ZINC000022065398    0.0600
51     H51     2.5468    0.2110    1.7061 H        1 ZINC000022065398    0.0500
@<TRIPOS>BOND
1     1     2     3
2     1     28    1
3     2     3     1
4     3     25    1
5     3     4     1
6     3     5     1
7     4     29    1
8     5     6     1
9     5     30    1
10    5     31    1
11    6     7     1
12    6     32    1
13    6     33    1
14    7     8     1
15    7     25    1
16    7     9     1
17    9     10    1
18    9     21    1
19    9     11    1
20    11    12    1
21    11    34    1
22    11    35    1
23    12    13    1
24    12    36    1
25    12    37    1
26    13    19    1
27    13    14    2
28    14    15    1
29    14    38    1
30    15    16    2
31    15    17    1
32    17    18    1
33    17    39    1
34    17    40    1
35    18    19    1
36    18    41    1
37    18    42    1
38    19    20    1
39    19    21    1
40    21    22    1
41    21    23    1
42    23    24    1
43    23    43    1
44    23    44    1
45    24    25    1
46    24    45    1
47    24    46    1
48    25    26    1
49    26    27    1
50    26    47    1
51    26    48    1
52    27    49    1
53    27    50    1
54    27    51    1
@<TRIPOS>SUBSTRUCTURE
1   ZINC000022065398 1     RESIDUE    1   A     ZIN   1
