@<TRIPOS>MOLECULE
ZINC000003830635
88    87    1     0     0
SMALL
USER_CHARGES
@<TRIPOS>ATOM
1      C1     -0.0184    1.5028    0.0103 C.3      1 ZINC000003830635   -0.1700
2      C2      0.0021   -0.0041    0.0020 C.2      1 ZINC000003830635    0.5400
3      O3      1.0605   -0.5961   -0.0113 O.2      1 ZINC000003830635   -0.5300
4      N4     -1.1558   -0.6938    0.0094 N.am     1 ZINC000003830635   -0.4800
5      O5     -2.3915   -0.0025    0.0249 O.3      1 ZINC000003830635   -0.3300
6      C6     -1.1360   -2.1586    0.0013 C.3      1 ZINC000003830635    0.1000
7      C7     -0.7424   -2.6710    1.3882 C.3      1 ZINC000003830635   -0.1400
8      C8     -0.7217   -4.2008    1.3798 C.3      1 ZINC000003830635   -0.1100
9      C9     -0.3282   -4.7131    2.7667 C.3      1 ZINC000003830635   -0.1300
10     C10    -0.3074   -6.2430    2.7583 C.3      1 ZINC000003830635    0.1200
11     N11     0.0694   -6.7336    4.0863 N.am     1 ZINC000003830635   -0.7300
12     C12     0.1533   -8.0589    4.3163 C.2      1 ZINC000003830635    0.5100
13     O13    -0.0830   -8.8454    3.4239 O.2      1 ZINC000003830635   -0.5400
14     C14     0.5409   -8.5635    5.6824 C.3      1 ZINC000003830635   -0.1300
15     C15     0.5617  -10.0934    5.6740 C.3      1 ZINC000003830635   -0.1100
16     C16     0.9493  -10.5980    7.0400 C.2      1 ZINC000003830635    0.5400
17     O17     1.1856   -9.8115    7.9325 O.2      1 ZINC000003830635   -0.5300
18     N18     1.0333  -11.9234    7.2700 N.am     1 ZINC000003830635   -0.4800
19     O19     0.7573  -12.8416    6.2281 O.3      1 ZINC000003830635   -0.3300
20     C20     1.4100  -12.4139    8.5980 C.3      1 ZINC000003830635    0.1000
21     C21     0.2276  -12.2532    9.5555 C.3      1 ZINC000003830635   -0.1400
22     C22     0.6211  -12.7656   10.9424 C.3      1 ZINC000003830635   -0.1100
23     C23    -0.5614  -12.6049   11.8999 C.3      1 ZINC000003830635   -0.1300
24     C24    -0.1679  -13.1172   13.2868 C.3      1 ZINC000003830635    0.1200
25     N25    -1.3002  -12.9633   14.2036 N.am     1 ZINC000003830635   -0.7300
26     C26    -1.1836  -13.3504   15.4893 C.2      1 ZINC000003830635    0.5100
27     O27    -0.1414  -13.8262   15.8873 O.2      1 ZINC000003830635   -0.5400
28     C28    -2.3484  -13.1922   16.4324 C.3      1 ZINC000003830635   -0.1300
29     C29    -1.9548  -13.7045   17.8194 C.3      1 ZINC000003830635   -0.1200
30     C30    -3.1196  -13.5462   18.7625 C.2      1 ZINC000003830635    0.5500
31     O31    -4.1618  -13.0705   18.3645 O.2      1 ZINC000003830635   -0.5300
32     N32    -3.0030  -13.9333   20.0482 N.am     1 ZINC000003830635   -0.4800
33     O33    -1.7862  -14.4888   20.5128 O.3      1 ZINC000003830635   -0.3200
34     C34    -4.1353  -13.7795   20.9650 C.3      1 ZINC000003830635    0.1000
35     C35    -5.1837  -14.8527   20.6652 C.3      1 ZINC000003830635   -0.1400
36     C36    -6.3662  -14.6920   21.6227 C.3      1 ZINC000003830635   -0.1200
37     C37    -7.4147  -15.7652   21.3230 C.3      1 ZINC000003830635   -0.1500
38     C38    -8.5972  -15.6045   22.2805 C.3      1 ZINC000003830635   -0.0100
39     N39    -9.6038  -16.6349   21.9927 N.4      1 ZINC000003830635   -0.6400
40     H40   -10.3836  -16.5289   22.6241 H        1 ZINC000003830635    0.4400
41     H41    -9.9252  -16.5347   21.0415 H        1 ZINC000003830635    0.4400
42     H42    -9.1940  -17.5488   22.1147 H        1 ZINC000003830635    0.4400
43     H43     1.0042    1.8801    0.0026 H        1 ZINC000003830635    0.0900
44     H44    -0.5455    1.8639   -0.8728 H        1 ZINC000003830635    0.0900
45     H45    -0.5286    1.8543    0.9071 H        1 ZINC000003830635    0.0900
46     H46    -3.1661   -0.5815    0.0292 H        1 ZINC000003830635    0.3900
47     H47    -2.1261   -2.5340   -0.2572 H        1 ZINC000003830635    0.0900
48     H48    -0.4114   -2.5081   -0.7342 H        1 ZINC000003830635    0.0900
49     H49     0.2477   -2.2956    1.6468 H        1 ZINC000003830635    0.0800
50     H50    -1.4670   -2.3215    2.1237 H        1 ZINC000003830635    0.0700
51     H51    -1.7118   -4.5762    1.1213 H        1 ZINC000003830635    0.0700
52     H52     0.0029   -4.5503    0.6443 H        1 ZINC000003830635    0.0700
53     H53     0.6619   -4.3378    3.0253 H        1 ZINC000003830635    0.0700
54     H54    -1.0527   -4.3636    3.5022 H        1 ZINC000003830635    0.0700
55     H55    -1.2976   -6.6184    2.4998 H        1 ZINC000003830635    0.0700
56     H56     0.4171   -6.5925    2.0228 H        1 ZINC000003830635    0.0700
57     H57     0.2584   -6.1045    4.8001 H        1 ZINC000003830635    0.4000
58     H58     1.5311   -8.1882    5.9409 H        1 ZINC000003830635    0.1000
59     H59    -0.1836   -8.2140    6.4179 H        1 ZINC000003830635    0.1000
60     H60    -0.4284  -10.4687    5.4154 H        1 ZINC000003830635    0.1000
61     H61     1.2862  -10.4429    4.9385 H        1 ZINC000003830635    0.1100
62     H62     0.8436  -13.7690    6.4880 H        1 ZINC000003830635    0.3900
63     H63     1.6837  -13.4670    8.5322 H        1 ZINC000003830635    0.0900
64     H64     2.2591  -11.8404    8.9698 H        1 ZINC000003830635    0.0900
65     H65    -0.0461  -11.2002    9.6213 H        1 ZINC000003830635    0.0800
66     H66    -0.6215  -12.8268    9.1837 H        1 ZINC000003830635    0.0700
67     H67     0.8948  -13.8186   10.8766 H        1 ZINC000003830635    0.0700
68     H68     1.4702  -12.1920   11.3142 H        1 ZINC000003830635    0.0700
69     H69    -0.8351  -11.5518   11.9658 H        1 ZINC000003830635    0.0700
70     H70    -1.4105  -13.1784   11.5281 H        1 ZINC000003830635    0.0700
71     H71     0.1058  -14.1702   13.2210 H        1 ZINC000003830635    0.0700
72     H72     0.6812  -12.5437   13.6586 H        1 ZINC000003830635    0.0700
73     H73    -2.1337  -12.5828   13.8854 H        1 ZINC000003830635    0.4000
74     H74    -2.6220  -12.1391   16.4983 H        1 ZINC000003830635    0.1000
75     H75    -3.1974  -13.7657   16.0607 H        1 ZINC000003830635    0.1000
76     H76    -1.6812  -14.7575   17.7535 H        1 ZINC000003830635    0.1100
77     H77    -1.1058  -13.1310   18.1911 H        1 ZINC000003830635    0.1100
78     H78    -1.7983  -14.7360   21.4476 H        1 ZINC000003830635    0.3900
79     H79    -3.7881  -13.8877   21.9925 H        1 ZINC000003830635    0.0900
80     H80    -4.5780  -12.7922   20.8331 H        1 ZINC000003830635    0.0900
81     H81    -5.5309  -14.7445   19.6377 H        1 ZINC000003830635    0.0800
82     H82    -4.7410  -15.8400   20.7971 H        1 ZINC000003830635    0.0700
83     H83    -6.0190  -14.8002   22.6503 H        1 ZINC000003830635    0.0800
84     H84    -6.8089  -13.7047   21.4909 H        1 ZINC000003830635    0.0800
85     H85    -7.7619  -15.6570   20.2954 H        1 ZINC000003830635    0.0900
86     H86    -6.9720  -16.7525   21.4548 H        1 ZINC000003830635    0.0900
87     H87    -8.2500  -15.7127   23.3080 H        1 ZINC000003830635    0.1300
88     H88    -9.0399  -14.6172   22.1486 H        1 ZINC000003830635    0.1300
@<TRIPOS>BOND
1     1     2     1
2     1     43    1
3     1     44    1
4     1     45    1
5     2     3     2
6     2     4     am
7     4     5     1
8     4     6     1
9     5     46    1
10    6     7     1
11    6     47    1
12    6     48    1
13    7     8     1
14    7     49    1
15    7     50    1
16    8     9     1
17    8     51    1
18    8     52    1
19    9     10    1
20    9     53    1
21    9     54    1
22    10    11    1
23    10    55    1
24    10    56    1
25    11    12    am
26    11    57    1
27    12    13    2
28    12    14    1
29    14    15    1
30    14    58    1
31    14    59    1
32    15    16    1
33    15    60    1
34    15    61    1
35    16    17    2
36    16    18    am
37    18    19    1
38    18    20    1
39    19    62    1
40    20    21    1
41    20    63    1
42    20    64    1
43    21    22    1
44    21    65    1
45    21    66    1
46    22    23    1
47    22    67    1
48    22    68    1
49    23    24    1
50    23    69    1
51    23    70    1
52    24    25    1
53    24    71    1
54    24    72    1
55    25    26    am
56    25    73    1
57    26    27    2
58    26    28    1
59    28    29    1
60    28    74    1
61    28    75    1
62    29    30    1
63    29    76    1
64    29    77    1
65    30    31    2
66    30    32    am
67    32    33    1
68    32    34    1
69    33    78    1
70    34    35    1
71    34    79    1
72    34    80    1
73    35    36    1
74    35    81    1
75    35    82    1
76    36    37    1
77    36    83    1
78    36    84    1
79    37    38    1
80    37    85    1
81    37    86    1
82    38    39    1
83    38    87    1
84    38    88    1
85    39    40    1
86    39    41    1
87    39    42    1
@<TRIPOS>SUBSTRUCTURE
1   ZINC000003830635 1     RESIDUE    1   A     ZIN   1
