@<TRIPOS>MOLECULE
ZINC000000968375
51    54    1     0     0
SMALL
USER_CHARGES
@<TRIPOS>ATOM
1      C1     -0.2506   -0.6654   -1.8900 C.1      1 ZINC000000968375   -0.1800
2      C2     -0.1712    0.4111   -1.4284 C.1      1 ZINC000000968375   -0.2000
3      C3     -0.0716    1.7609   -0.8496 C.3      1 ZINC000000968375    0.2500
4      O4     -1.1706    2.0020    0.0314 O.3      1 ZINC000000968375   -0.5400
5      C5     -0.0421    2.8235   -1.9733 C.3      1 ZINC000000968375   -0.1500
6      C6      1.2821    3.6111   -1.7984 C.3      1 ZINC000000968375   -0.1200
7      C7      1.6231    3.4054   -0.3147 C.3      1 ZINC000000968375   -0.0800
8      H8      0.9981    4.0454    0.3082 H        1 ZINC000000968375    0.0800
9      C9      3.0802    3.6028    0.0313 C.3      1 ZINC000000968375   -0.0800
10     H10     3.2038    4.5643    0.5297 H        1 ZINC000000968375    0.0800
11     C11     4.0105    3.5394   -1.1746 C.3      1 ZINC000000968375   -0.1200
12     C12     5.4270    3.8970   -0.7063 C.3      1 ZINC000000968375   -0.1000
13     C13     5.8179    3.0251    0.4724 C.2      1 ZINC000000968375   -0.0300
14     C14     7.0210    2.4534    0.4463 C.2      1 ZINC000000968375   -0.2500
15     C15     7.4635    1.6097    1.5610 C.2      1 ZINC000000968375    0.3900
16     O16     8.3461    0.7878    1.4287 O.2      1 ZINC000000968375   -0.4600
17     C17     6.7603    1.8190    2.8879 C.3      1 ZINC000000968375   -0.1700
18     C18     5.2572    1.7943    2.6154 C.3      1 ZINC000000968375   -0.1100
19     C19     4.8474    2.8548    1.6103 C.3      1 ZINC000000968375   -0.0600
20     H20     4.7590    3.8113    2.1255 H        1 ZINC000000968375    0.0900
21     C21     3.4940    2.4771    0.9939 C.3      1 ZINC000000968375   -0.1200
22     H22     3.6054    1.5434    0.4426 H        1 ZINC000000968375    0.1200
23     C23     2.3989    2.3050    2.0406 C.3      1 ZINC000000968375   -0.1100
24     C24     1.1944    1.6186    1.3648 C.3      1 ZINC000000968375   -0.1100
25     C25     1.2510    1.9176   -0.0993 C.3      1 ZINC000000968375   -0.0300
26     C26     2.3326    1.0588   -0.7577 C.3      1 ZINC000000968375   -0.1500
27     C27     2.5772   -0.1914    0.0896 C.3      1 ZINC000000968375   -0.1600
28     H28    -0.3216   -1.6282   -2.3029 H        1 ZINC000000968375    0.2200
29     H29    -2.0369    1.9342   -0.3928 H        1 ZINC000000968375    0.3800
30     H30    -0.0617    2.3369   -2.9485 H        1 ZINC000000968375    0.0700
31     H31    -0.8935    3.4967   -1.8737 H        1 ZINC000000968375    0.0800
32     H32     2.0638    3.1948   -2.4338 H        1 ZINC000000968375    0.0800
33     H33     1.1317    4.6687   -2.0153 H        1 ZINC000000968375    0.0700
34     H34     4.0042    2.5322   -1.5913 H        1 ZINC000000968375    0.0800
35     H35     3.6819    4.2527   -1.9304 H        1 ZINC000000968375    0.0800
36     H36     6.1298    3.7366   -1.5239 H        1 ZINC000000968375    0.0800
37     H37     5.4555    4.9446   -0.4067 H        1 ZINC000000968375    0.0800
38     H38     7.6732    2.6119   -0.3999 H        1 ZINC000000968375    0.1300
39     H39     7.0251    1.0181    3.5782 H        1 ZINC000000968375    0.0900
40     H40     7.0447    2.7827    3.3102 H        1 ZINC000000968375    0.1000
41     H41     4.9829    0.8133    2.2275 H        1 ZINC000000968375    0.0700
42     H42     4.7241    1.9664    3.5505 H        1 ZINC000000968375    0.0800
43     H43     2.7653    1.6842    2.8582 H        1 ZINC000000968375    0.0700
44     H44     2.0994    3.2804    2.4239 H        1 ZINC000000968375    0.0600
45     H45     1.2284    0.5454    1.5521 H        1 ZINC000000968375    0.0700
46     H46     0.2657    2.0331    1.7569 H        1 ZINC000000968375    0.0800
47     H47     2.0054    0.7638   -1.7547 H        1 ZINC000000968375    0.0600
48     H48     3.2562    1.6328   -0.8334 H        1 ZINC000000968375    0.1100
49     H49     3.3040   -0.8322   -0.4096 H        1 ZINC000000968375    0.0500
50     H50     2.9615    0.1013    1.0667 H        1 ZINC000000968375    0.0700
51     H51     1.6402   -0.7341    0.2154 H        1 ZINC000000968375    0.0600
@<TRIPOS>BOND
1     1     2     3
2     1     28    1
3     2     3     1
4     3     25    1
5     3     4     1
6     3     5     1
7     4     29    1
8     5     6     1
9     5     30    1
10    5     31    1
11    6     7     1
12    6     32    1
13    6     33    1
14    7     8     1
15    7     25    1
16    7     9     1
17    9     10    1
18    9     21    1
19    9     11    1
20    11    12    1
21    11    34    1
22    11    35    1
23    12    13    1
24    12    36    1
25    12    37    1
26    13    19    1
27    13    14    2
28    14    15    1
29    14    38    1
30    15    16    2
31    15    17    1
32    17    18    1
33    17    39    1
34    17    40    1
35    18    19    1
36    18    41    1
37    18    42    1
38    19    20    1
39    19    21    1
40    21    22    1
41    21    23    1
42    23    24    1
43    23    43    1
44    23    44    1
45    24    25    1
46    24    45    1
47    24    46    1
48    25    26    1
49    26    27    1
50    26    47    1
51    26    48    1
52    27    49    1
53    27    50    1
54    27    51    1
@<TRIPOS>SUBSTRUCTURE
1   ZINC000000968375 1     RESIDUE    1   A     ZIN   1
