@<TRIPOS>MOLECULE
ZINC000003798763
65    66    1     0     0
SMALL
USER_CHARGES
@<TRIPOS>ATOM
1      C1      0.5596    1.0141   -1.0555 C.3      1 ZINC000003798763   -0.1600
2      C2      0.4165   -0.5016   -1.2072 C.3      1 ZINC000003798763   -0.1100
3      C3     -0.9980   -0.9231   -0.8043 C.3      1 ZINC000003798763   -0.0900
4      H4     -1.7254   -0.3574   -1.3866 H        1 ZINC000003798763    0.1200
5      C5     -1.2087   -0.6437    0.6851 C.3      1 ZINC000003798763   -0.1500
6      C6     -1.1781   -2.3956   -1.0696 C.2      1 ZINC000003798763    0.4500
7      O7     -0.2684   -3.0416   -1.5333 O.2      1 ZINC000003798763   -0.5100
8      O8     -2.3491   -2.9895   -0.7907 O.3      1 ZINC000003798763   -0.3200
9      C9     -2.4511   -4.4104   -1.0718 C.3      1 ZINC000003798763    0.1000
10     H10    -1.8011   -4.6528   -1.9125 H        1 ZINC000003798763    0.0900
11     C11    -1.9899   -5.1942    0.1552 C.3      1 ZINC000003798763   -0.1300
12     C12    -2.1157   -6.6926   -0.1533 C.3      1 ZINC000003798763    0.1400
13     H13    -1.7745   -7.2757    0.7020 H        1 ZINC000003798763    0.0700
14     O14    -1.3329   -7.0174   -1.3039 O.3      1 ZINC000003798763   -0.5500
15     C15    -3.5689   -6.9853   -0.4238 C.2      1 ZINC000003798763   -0.2100
16     C16    -4.3522   -6.0819   -0.9833 C.2      1 ZINC000003798763   -0.0400
17     C17    -5.7981   -6.3700   -1.1272 C.2      1 ZINC000003798763   -0.1400
18     C18    -6.6425   -5.3833   -1.3731 C.2      1 ZINC000003798763   -0.1200
19     C19    -6.2355   -3.9509   -1.5385 C.3      1 ZINC000003798763   -0.0600
20     H20    -6.9720   -3.3132   -1.0497 H        1 ZINC000003798763    0.0800
21     C21    -6.1943   -3.6127   -3.0301 C.3      1 ZINC000003798763   -0.1500
22     C22    -4.8589   -3.6811   -0.9290 C.3      1 ZINC000003798763   -0.0600
23     H23    -4.9220   -3.7412    0.1575 H        1 ZINC000003798763    0.0700
24     C24    -4.3806   -2.2867   -1.3388 C.3      1 ZINC000003798763   -0.1100
25     C25    -5.5543   -1.3070   -1.2795 C.3      1 ZINC000003798763   -0.1700
26     C26    -5.0760    0.0873   -1.6892 C.3      1 ZINC000003798763    0.1100
27     H27    -4.2330    0.3807   -1.0637 H        1 ZINC000003798763    0.0900
28     O28    -4.6687    0.0678   -3.0588 O.3      1 ZINC000003798763   -0.5400
29     C29    -6.2171    1.0908   -1.5107 C.3      1 ZINC000003798763   -0.1900
30     C30    -5.7044    2.5029   -1.8008 C.3      1 ZINC000003798763    0.1400
31     H31    -4.8395    2.7118   -1.1713 H        1 ZINC000003798763    0.0900
32     O32    -5.3275    2.5998   -3.1757 O.3      1 ZINC000003798763   -0.5300
33     C33    -6.8096    3.5180   -1.5022 C.3      1 ZINC000003798763   -0.2200
34     C34    -6.2678    4.9142   -1.6697 C.2      1 ZINC000003798763    0.4900
35     O35    -5.1055    5.0819   -1.9974 O.co2    1 ZINC000003798763   -0.6800
36     O36    -6.9918    5.8762   -1.4774 O.co2    1 ZINC000003798763   -0.7100
37     C37    -3.8782   -4.7366   -1.4440 C.3      1 ZINC000003798763   -0.0500
38     H38    -3.9295   -4.7273   -2.5327 H        1 ZINC000003798763    0.0900
39     H39     1.5674    1.3144   -1.3425 H        1 ZINC000003798763    0.0600
40     H40    -0.1653    1.5137   -1.6982 H        1 ZINC000003798763    0.0600
41     H41     0.3788    1.2941   -0.0177 H        1 ZINC000003798763    0.0600
42     H42     0.5973   -0.7816   -2.2450 H        1 ZINC000003798763    0.0700
43     H43     1.1414   -1.0011   -0.5645 H        1 ZINC000003798763    0.0700
44     H44    -1.0785    0.4213    0.8770 H        1 ZINC000003798763    0.0800
45     H45    -2.2165   -0.9440    0.9721 H        1 ZINC000003798763    0.0700
46     H46    -0.4813   -1.2094    1.2674 H        1 ZINC000003798763    0.0600
47     H47    -0.9508   -4.9509    0.3771 H        1 ZINC000003798763    0.0800
48     H48    -2.6175   -4.9412    1.0097 H        1 ZINC000003798763    0.0900
49     H49    -1.3687   -7.9510   -1.5531 H        1 ZINC000003798763    0.3800
50     H50    -3.9759   -7.9490   -0.1553 H        1 ZINC000003798763    0.1200
51     H51    -6.1610   -7.3827   -1.0319 H        1 ZINC000003798763    0.1200
52     H52    -7.6915   -5.6249   -1.4606 H        1 ZINC000003798763    0.1100
53     H53    -7.1819   -3.7663   -3.4649 H        1 ZINC000003798763    0.0500
54     H54    -5.8987   -2.5714   -3.1586 H        1 ZINC000003798763    0.0800
55     H55    -5.4729   -4.2594   -3.5295 H        1 ZINC000003798763    0.0500
56     H56    -3.5969   -1.9565   -0.6570 H        1 ZINC000003798763    0.1100
57     H57    -3.9874   -2.3215   -2.3548 H        1 ZINC000003798763    0.0700
58     H58    -6.3380   -1.6373   -1.9613 H        1 ZINC000003798763    0.0700
59     H59    -5.9475   -1.2722   -0.2635 H        1 ZINC000003798763    0.0700
60     H60    -5.3703   -0.1855   -3.6742 H        1 ZINC000003798763    0.3600
61     H61    -7.0251    0.8487   -2.2011 H        1 ZINC000003798763    0.0600
62     H62    -6.5871    1.0418   -0.4867 H        1 ZINC000003798763    0.0700
63     H63    -6.0496    2.4256   -3.7948 H        1 ZINC000003798763    0.3500
64     H64    -7.6394    3.3651   -2.1922 H        1 ZINC000003798763    0.0600
65     H65    -7.1589    3.3842   -0.4784 H        1 ZINC000003798763    0.0600
@<TRIPOS>BOND
1     1     2     1
2     1     39    1
3     1     40    1
4     1     41    1
5     2     3     1
6     2     42    1
7     2     43    1
8     3     4     1
9     3     5     1
10    3     6     1
11    5     44    1
12    5     45    1
13    5     46    1
14    6     7     2
15    6     8     1
16    8     9     1
17    9     10    1
18    9     37    1
19    9     11    1
20    11    12    1
21    11    47    1
22    11    48    1
23    12    13    1
24    12    14    1
25    12    15    1
26    14    49    1
27    15    16    2
28    15    50    1
29    16    37    1
30    16    17    1
31    17    18    2
32    17    51    1
33    18    19    1
34    18    52    1
35    19    20    1
36    19    21    1
37    19    22    1
38    21    53    1
39    21    54    1
40    21    55    1
41    22    23    1
42    22    24    1
43    22    37    1
44    24    25    1
45    24    56    1
46    24    57    1
47    25    26    1
48    25    58    1
49    25    59    1
50    26    27    1
51    26    28    1
52    26    29    1
53    28    60    1
54    29    30    1
55    29    61    1
56    29    62    1
57    30    31    1
58    30    32    1
59    30    33    1
60    32    63    1
61    33    34    1
62    33    64    1
63    33    65    1
64    34    35    ar
65    34    36    ar
66    37    38    1
@<TRIPOS>SUBSTRUCTURE
1   ZINC000003798763 1     RESIDUE    1   A     ZIN   1
