@<TRIPOS>MOLECULE
ZINC000000621853
54    56    1     0     0
SMALL
USER_CHARGES
@<TRIPOS>ATOM
1      C1     -0.1047    1.1375    0.2774 C.3      1 ZINC000000621853    0.0200
2      O2     -0.0330   -0.2810    0.1194 O.3      1 ZINC000000621853   -0.3000
3      C3      0.5890   -0.7469   -0.9957 C.ar     1 ZINC000000621853    0.1300
4      C4      1.1233    0.1482   -1.9137 C.ar     1 ZINC000000621853   -0.2000
5      C5      1.7574   -0.3198   -3.0459 C.ar     1 ZINC000000621853   -0.0200
6      C6      1.8670   -1.6892   -3.2645 C.ar     1 ZINC000000621853   -0.1000
7      C7      1.3269   -2.5957   -2.3473 C.ar     1 ZINC000000621853    0.1400
8      O8      1.4263   -3.9332   -2.5659 O.3      1 ZINC000000621853   -0.3200
9      C9      2.6358   -4.5704   -2.1499 C.3      1 ZINC000000621853    0.0300
10     C10     0.6921   -2.1175   -1.2084 C.ar     1 ZINC000000621853    0.0500
11     O11     0.1635   -2.9887   -0.3063 O.3      1 ZINC000000621853   -0.3100
12     C12     0.9739   -3.3266    0.8211 C.3      1 ZINC000000621853    0.0300
13     C13     2.5756   -2.1983   -4.4770 C.2      1 ZINC000000621853   -0.0600
14     C14     1.9329   -3.1643   -5.2070 C.2      1 ZINC000000621853   -0.0200
15     C15     2.2513   -3.8141   -6.3427 C.2      1 ZINC000000621853   -0.1900
16     C16     3.3468   -3.6595   -7.1336 C.2      1 ZINC000000621853    0.1000
17     O17     3.4297   -4.4397   -8.2389 O.3      1 ZINC000000621853   -0.2800
18     C18     2.3558   -5.3536   -8.4699 C.3      1 ZINC000000621853    0.0100
19     C19     4.3888   -2.7678   -6.9037 C.2      1 ZINC000000621853    0.3900
20     O20     5.2563   -2.7307   -7.7662 O.2      1 ZINC000000621853   -0.4900
21     C21     4.5714   -1.9274   -5.8421 C.2      1 ZINC000000621853   -0.2100
22     C22     3.8294   -1.6520   -4.7555 C.2      1 ZINC000000621853    0.0300
23     C23     4.4311   -0.6812   -3.7601 C.3      1 ZINC000000621853    0.1700
24     H24     4.2401   -1.0438   -2.7501 H        1 ZINC000000621853    0.1100
25     N25     5.8784   -0.6109   -3.9764 N.am     1 ZINC000000621853   -0.7300
26     C26     6.6912   -1.5163   -3.3966 C.2      1 ZINC000000621853    0.5100
27     C27     8.1799   -1.4440   -3.6192 C.3      1 ZINC000000621853   -0.1700
28     O28     6.2244   -2.3892   -2.6958 O.2      1 ZINC000000621853   -0.5400
29     C29     3.8432    0.7077   -3.9060 C.3      1 ZINC000000621853   -0.1200
30     C30     2.3254    0.6491   -4.0506 C.3      1 ZINC000000621853   -0.0800
31     H31     0.9033    1.5509    0.3100 H        1 ZINC000000621853    0.0600
32     H32    -0.6477    1.5697   -0.5631 H        1 ZINC000000621853    0.0600
33     H33    -0.6245    1.3738    1.2059 H        1 ZINC000000621853    0.1000
34     H34     1.0419    1.2112   -1.7411 H        1 ZINC000000621853    0.1400
35     H35     3.4877   -4.0664   -2.6065 H        1 ZINC000000621853    0.0500
36     H36     2.7205   -4.5160   -1.0646 H        1 ZINC000000621853    0.0500
37     H37     2.6219   -5.6149   -2.4614 H        1 ZINC000000621853    0.1000
38     H38     0.4030   -3.9565    1.5033 H        1 ZINC000000621853    0.1000
39     H39     1.8592   -3.8657    0.4837 H        1 ZINC000000621853    0.0400
40     H40     1.2778   -2.4153    1.3363 H        1 ZINC000000621853    0.0500
41     H41     0.9835   -3.4637   -4.7883 H        1 ZINC000000621853    0.1300
42     H42     1.5408   -4.5590   -6.6694 H        1 ZINC000000621853    0.1400
43     H43     2.2786   -6.0435   -7.6296 H        1 ZINC000000621853    0.0600
44     H44     1.4227   -4.7994   -8.5719 H        1 ZINC000000621853    0.0600
45     H45     2.5468   -5.9149   -9.3845 H        1 ZINC000000621853    0.1100
46     H46     5.4978   -1.3738   -5.8841 H        1 ZINC000000621853    0.1400
47     H47     6.2517    0.0872   -4.5369 H        1 ZINC000000621853    0.4100
48     H48     8.6320   -0.8167   -2.8510 H        1 ZINC000000621853    0.1000
49     H49     8.6043   -2.4466   -3.5658 H        1 ZINC000000621853    0.1000
50     H50     8.3801   -1.0166   -4.6017 H        1 ZINC000000621853    0.0800
51     H51     4.0964    1.2976   -3.0251 H        1 ZINC000000621853    0.0800
52     H52     4.2679    1.1850   -4.7892 H        1 ZINC000000621853    0.0800
53     H53     2.0694    0.3199   -5.0577 H        1 ZINC000000621853    0.0900
54     H54     1.9059    1.6399   -3.8760 H        1 ZINC000000621853    0.0900
@<TRIPOS>BOND
1     1     2     1
2     1     31    1
3     1     32    1
4     1     33    1
5     2     3     1
6     3     10    ar
7     3     4     ar
8     4     5     ar
9     4     34    1
10    5     30    1
11    5     6     ar
12    6     7     ar
13    6     13    1
14    7     8     1
15    7     10    ar
16    8     9     1
17    9     35    1
18    9     36    1
19    9     37    1
20    10    11    1
21    11    12    1
22    12    38    1
23    12    39    1
24    12    40    1
25    13    22    1
26    13    14    2
27    14    15    1
28    14    41    1
29    15    16    2
30    15    42    1
31    16    17    1
32    16    19    1
33    17    18    1
34    18    43    1
35    18    44    1
36    18    45    1
37    19    20    2
38    19    21    1
39    21    22    2
40    21    46    1
41    22    23    1
42    23    24    1
43    23    25    1
44    23    29    1
45    25    26    am
46    25    47    1
47    26    27    1
48    26    28    2
49    27    48    1
50    27    49    1
51    27    50    1
52    29    30    1
53    29    51    1
54    29    52    1
55    30    53    1
56    30    54    1
@<TRIPOS>SUBSTRUCTURE
1   ZINC000000621853 1     RESIDUE    1   A     ZIN   1
