@<TRIPOS>MOLECULE
ZINC000003830569
22   23    0    0    0
SMALL
USER_CHARGES
NO_NAME
@<TRIPOS>ATOM
1 O1        0.0021    -0.0041     0.0020 O.co2  1 <0>      -0.6600
2 C2       -0.0145     1.2150     0.0087 C.2    1 <0>       0.5200
3 O3        1.0330     1.8389     0.0021 O.co2  1 <0>      -0.6800
4 C4       -1.3296     1.9507     0.0190 C.3    1 <0>       0.0300
5 H5       -1.2297     2.9122     0.5226 H      1 <0>       0.1000
6 C6       -1.8586     2.1346    -1.3996 C.2    1 <0>       0.0500
7 C7       -1.7803     3.2018    -2.1674 C.2    1 <0>      -0.1800
8 C8       -2.3733     3.1786    -3.5526 C.3    1 <0>       0.1200
9 O9       -3.1082     4.3835    -3.7765 O.3    1 <0>      -0.5700
10 O10      -2.4350     0.9230    -1.6851 O.3    1 <0>      -0.3000
11 C11      -3.0719     0.4748    -0.4793 C.3    1 <0>       0.2200
12 H12      -3.1377    -0.6104    -0.4007 H      1 <0>       0.1600
13 C13      -4.3669     1.2066    -0.1356 C.3    1 <0>      -0.2200
14 C14      -3.5377     1.7328     1.0051 C.2    1 <0>       0.4800
15 O15      -3.8133     2.4615     1.9346 O.2    1 <0>      -0.4700
16 N16      -2.3879     1.1294     0.6562 N.am   1 <0>      -0.4900
17 H17      -1.2912     4.0936    -1.8043 H      1 <0>       0.1400
18 H18      -1.5736     3.0986    -4.2889 H      1 <0>       0.0600
19 H19      -3.0414     2.3226    -3.6475 H      1 <0>       0.0500
20 H20      -3.5185     4.4374    -4.6504 H      1 <0>       0.3800
21 H21      -4.6625     1.9628    -0.8628 H      1 <0>       0.1300
22 H22      -5.1854     0.5537     0.1674 H      1 <0>       0.1200
@<TRIPOS>BOND
1    1    2 ar
2    2    3 ar
3    2    4 1
4    4    5 1
5    4   16 1
6    4    6 1
7    6    7 2
8    6   10 1
9    7    8 1
10    7   17 1
11    8    9 1
12    8   18 1
13    8   19 1
14    9   20 1
15   10   11 1
16   11   12 1
17   11   16 1
18   11   13 1
19   13   14 1
20   13   21 1
21   13   22 1
22   14   15 2
23   14   16 am
