@<TRIPOS>MOLECULE
ZINC000001530575
49    49    1     0     0
SMALL
USER_CHARGES
@<TRIPOS>ATOM
1      C1     -0.0173    1.4248    0.0099 C.3      1 ZINC000001530575    0.0200
2      O2      0.0021   -0.0041    0.0020 O.3      1 ZINC000001530575   -0.3100
3      C3      0.6062   -0.6075   -1.0564 C.ar     1 ZINC000001530575    0.1000
4      C4      1.1727    0.1587   -2.0618 C.ar     1 ZINC000001530575   -0.1800
5      C5      1.7870   -0.4565   -3.1372 C.ar     1 ZINC000001530575   -0.0800
6      C6      2.4028    0.3787   -4.2300 C.3      1 ZINC000001530575    0.1600
7      N7      3.8033    0.6564   -3.9021 N.am     1 ZINC000001530575   -0.7300
8      C8      4.5589    1.3921   -4.7414 C.2      1 ZINC000001530575    0.5100
9      O9      4.0794    1.8242   -5.7681 O.2      1 ZINC000001530575   -0.5400
10     C10     5.9996    1.6777   -4.4040 C.3      1 ZINC000001530575   -0.1400
11     C11     6.6248    2.5257   -5.5135 C.3      1 ZINC000001530575   -0.1100
12     C12     8.0875    2.8157   -5.1710 C.3      1 ZINC000001530575   -0.1100
13     C13     8.7126    3.6637   -6.2805 C.3      1 ZINC000001530575   -0.0900
14     C14    10.1533    3.9493   -5.9432 C.2      1 ZINC000001530575   -0.1600
15     C15    11.0994    3.6389   -6.7945 C.2      1 ZINC000001530575   -0.1500
16     C16    12.5401    3.9245   -6.4571 C.3      1 ZINC000001530575   -0.0700
17     C17    13.3321    2.6155   -6.4531 C.3      1 ZINC000001530575   -0.1400
18     C18    13.1298    4.8743   -7.5016 C.3      1 ZINC000001530575   -0.1400
19     C19     1.8380   -1.8356   -3.2117 C.ar     1 ZINC000001530575   -0.1200
20     C20     1.2740   -2.6064   -2.2116 C.ar     1 ZINC000001530575   -0.1100
21     C21     0.6617   -1.9965   -1.1290 C.ar     1 ZINC000001530575    0.0800
22     O22     0.1067   -2.7530   -0.1447 O.3      1 ZINC000001530575   -0.4900
23     H23     1.0053    1.8021    0.0021 H        1 ZINC000001530575    0.0600
24     H24    -0.5445    1.7859   -0.8732 H        1 ZINC000001530575    0.0600
25     H25    -0.5275    1.7763    0.9067 H        1 ZINC000001530575    0.1000
26     H26     1.1343    1.2366   -2.0060 H        1 ZINC000001530575    0.1300
27     H27     2.3513   -0.1633   -5.1743 H        1 ZINC000001530575    0.0800
28     H28     1.8576    1.3183   -4.3202 H        1 ZINC000001530575    0.0800
29     H29     4.1869    0.3109   -3.0809 H        1 ZINC000001530575    0.4000
30     H30     6.0511    2.2198   -3.4597 H        1 ZINC000001530575    0.0900
31     H31     6.5448    0.7382   -4.3138 H        1 ZINC000001530575    0.0900
32     H32     6.5733    1.9836   -6.4578 H        1 ZINC000001530575    0.0700
33     H33     6.0796    3.4652   -5.6037 H        1 ZINC000001530575    0.0700
34     H34     8.1389    3.3577   -4.2267 H        1 ZINC000001530575    0.0600
35     H35     8.6327    1.8762   -5.0808 H        1 ZINC000001530575    0.0600
36     H36     8.6612    3.1216   -7.2248 H        1 ZINC000001530575    0.0700
37     H37     8.1674    4.6032   -6.3707 H        1 ZINC000001530575    0.0700
38     H38    10.4059    4.4100   -4.9996 H        1 ZINC000001530575    0.1100
39     H39    10.8468    3.1782   -7.7381 H        1 ZINC000001530575    0.1100
40     H40    12.5977    4.3871   -5.4718 H        1 ZINC000001530575    0.0700
41     H41    13.2745    2.1529   -7.4384 H        1 ZINC000001530575    0.0600
42     H42    14.3742    2.8221   -6.2091 H        1 ZINC000001530575    0.0600
43     H43    12.9120    1.9389   -5.7089 H        1 ZINC000001530575    0.0500
44     H44    12.5655    5.8068   -7.5045 H        1 ZINC000001530575    0.0500
45     H45    14.1719    5.0809   -7.2576 H        1 ZINC000001530575    0.0600
46     H46    13.0722    4.4117   -8.4869 H        1 ZINC000001530575    0.0600
47     H47     2.3190   -2.3124   -4.0529 H        1 ZINC000001530575    0.1300
48     H48     1.3146   -3.6839   -2.2726 H        1 ZINC000001530575    0.1400
49     H49     0.7153   -2.9709    0.5745 H        1 ZINC000001530575    0.3900
@<TRIPOS>BOND
1     1     2     1
2     1     23    1
3     1     24    1
4     1     25    1
5     2     3     1
6     3     21    ar
7     3     4     ar
8     4     5     ar
9     4     26    1
10    5     6     1
11    5     19    ar
12    6     7     1
13    6     27    1
14    6     28    1
15    7     8     am
16    7     29    1
17    8     9     2
18    8     10    1
19    10    11    1
20    10    30    1
21    10    31    1
22    11    12    1
23    11    32    1
24    11    33    1
25    12    13    1
26    12    34    1
27    12    35    1
28    13    14    1
29    13    36    1
30    13    37    1
31    14    15    2
32    14    38    1
33    15    16    1
34    15    39    1
35    16    17    1
36    16    18    1
37    16    40    1
38    17    41    1
39    17    42    1
40    17    43    1
41    18    44    1
42    18    45    1
43    18    46    1
44    19    20    ar
45    19    47    1
46    20    21    ar
47    20    48    1
48    21    22    1
49    22    49    1
@<TRIPOS>SUBSTRUCTURE
1   ZINC000001530575 1     RESIDUE    1   A     ZIN   1
