@<TRIPOS>MOLECULE
ZINC000000896968
51    53    1     0     0
SMALL
USER_CHARGES
@<TRIPOS>ATOM
1      C1     -0.0178    1.4648    0.0101 C.3      1 ZINC000000896968   -0.0400
2      N2      0.0021   -0.0041    0.0020 N.4      1 ZINC000000896968   -0.2700
3      C3     -1.3740   -0.5182    0.0002 C.3      1 ZINC000000896968   -0.0500
4      C4      0.7116   -0.4854   -1.2024 C.3      1 ZINC000000896968   -0.0100
5      C5      2.1644   -0.7417   -0.7297 C.3      1 ZINC000000896968   -0.1600
6      C6      1.9349   -1.3008    0.6992 C.3      1 ZINC000000896968    0.0700
7      H7      1.7066   -2.3661    0.6641 H        1 ZINC000000896968    0.1200
8      O8      3.0929   -1.0532    1.5394 O.3      1 ZINC000000896968   -0.3300
9      C9      4.0323   -2.0112    1.5802 C.2      1 ZINC000000896968    0.4500
10     O10     3.8916   -3.0231    0.9351 O.2      1 ZINC000000896968   -0.4700
11     C11     5.2624   -1.8245    2.4305 C.3      1 ZINC000000896968    0.2100
12     O12     5.6422   -0.4470    2.4229 O.3      1 ZINC000000896968   -0.5200
13     C13     6.3880   -2.6590    1.8756 C.ar     1 ZINC000000896968   -0.1200
14     C14     6.5620   -3.9603    2.3083 C.ar     1 ZINC000000896968   -0.0900
15     C15     7.5944   -4.7257    1.7993 C.ar     1 ZINC000000896968   -0.1100
16     C16     8.4526   -4.1900    0.8573 C.ar     1 ZINC000000896968   -0.1000
17     C17     8.2781   -2.8890    0.4240 C.ar     1 ZINC000000896968   -0.1100
18     C18     7.2430   -2.1249    0.9298 C.ar     1 ZINC000000896968   -0.1100
19     C19     4.9619   -2.2629    3.8652 C.3      1 ZINC000000896968   -0.0800
20     C20     6.1679   -1.9592    4.7886 C.3      1 ZINC000000896968   -0.1100
21     C21     5.5130   -1.8757    6.1898 C.3      1 ZINC000000896968   -0.1300
22     C22     4.1618   -1.1763    5.9348 C.3      1 ZINC000000896968   -0.1200
23     C23     3.8115   -1.4225    4.4568 C.3      1 ZINC000000896968   -0.1200
24     C24     0.7144   -0.4972    1.1951 C.3      1 ZINC000000896968   -0.0100
25     H25     1.0047    1.8421    0.0024 H        1 ZINC000000896968    0.1200
26     H26    -0.5450    1.8259   -0.8730 H        1 ZINC000000896968    0.1200
27     H27    -0.5280    1.8163    0.9069 H        1 ZINC000000896968    0.1200
28     H28    -1.8992   -0.1476   -0.8802 H        1 ZINC000000896968    0.1300
29     H29    -1.3547   -1.6079   -0.0202 H        1 ZINC000000896968    0.1200
30     H30    -1.8892   -0.1807    0.8995 H        1 ZINC000000896968    0.1200
31     H31     0.2615   -1.4100   -1.5639 H        1 ZINC000000896968    0.1400
32     H32     0.6951    0.2760   -1.9822 H        1 ZINC000000896968    0.1400
33     H33     2.6567   -1.4795   -1.3633 H        1 ZINC000000896968    0.1200
34     H34     2.7345    0.1867   -0.6988 H        1 ZINC000000896968    0.1100
35     H35     5.8477   -0.1005    1.5439 H        1 ZINC000000896968    0.3800
36     H36     5.8915   -4.3789    3.0443 H        1 ZINC000000896968    0.1300
37     H37     7.7308   -5.7422    2.1379 H        1 ZINC000000896968    0.1300
38     H38     9.2597   -4.7877    0.4602 H        1 ZINC000000896968    0.1300
39     H39     8.9488   -2.4703   -0.3118 H        1 ZINC000000896968    0.1300
40     H40     7.1066   -1.1085    0.5912 H        1 ZINC000000896968    0.1200
41     H41     4.7138   -3.3238    3.8950 H        1 ZINC000000896968    0.1000
42     H42     6.8969   -2.7686    4.7506 H        1 ZINC000000896968    0.0700
43     H43     6.6298   -1.0089    4.5209 H        1 ZINC000000896968    0.0900
44     H44     5.3547   -2.8743    6.5971 H        1 ZINC000000896968    0.0700
45     H45     6.1291   -1.2809    6.8640 H        1 ZINC000000896968    0.0700
46     H46     3.3925   -1.6047    6.5772 H        1 ZINC000000896968    0.0600
47     H47     4.2535   -0.1067    6.1236 H        1 ZINC000000896968    0.0700
48     H48     3.7331   -0.4723    3.9284 H        1 ZINC000000896968    0.0800
49     H49     2.8721   -1.9703    4.3820 H        1 ZINC000000896968    0.0600
50     H50     1.0466    0.3444    1.8028 H        1 ZINC000000896968    0.1500
51     H51     0.0578   -1.1425    1.7786 H        1 ZINC000000896968    0.1400
@<TRIPOS>BOND
1     1     2     1
2     1     25    1
3     1     26    1
4     1     27    1
5     2     24    1
6     2     3     1
7     2     4     1
8     3     28    1
9     3     29    1
10    3     30    1
11    4     5     1
12    4     31    1
13    4     32    1
14    5     6     1
15    5     33    1
16    5     34    1
17    6     7     1
18    6     8     1
19    6     24    1
20    8     9     1
21    9     10    2
22    9     11    1
23    11    12    1
24    11    13    1
25    11    19    1
26    12    35    1
27    13    18    ar
28    13    14    ar
29    14    15    ar
30    14    36    1
31    15    16    ar
32    15    37    1
33    16    17    ar
34    16    38    1
35    17    18    ar
36    17    39    1
37    18    40    1
38    19    23    1
39    19    20    1
40    19    41    1
41    20    21    1
42    20    42    1
43    20    43    1
44    21    22    1
45    21    44    1
46    21    45    1
47    22    23    1
48    22    46    1
49    22    47    1
50    23    48    1
51    23    49    1
52    24    50    1
53    24    51    1
@<TRIPOS>SUBSTRUCTURE
1   ZINC000000896968 1     RESIDUE    1   A     ZIN   1
