@<TRIPOS>MOLECULE
ZINC000008403947
27    27    1     0     0
SMALL
USER_CHARGES
@<TRIPOS>ATOM
1      C1     -0.0187    1.5258    0.0104 C.3      1 ZINC000008403947   -0.1800
2      C2      0.0021   -0.0041    0.0020 C.3      1 ZINC000008403947    0.0700
3      C3      0.7421   -0.5109    1.2415 C.3      1 ZINC000008403947   -0.1800
4      N4     -1.3761   -0.5125    0.0124 N.4      1 ZINC000008403947   -0.6400
5      H5     -1.8641   -0.1783   -0.8050 H        1 ZINC000008403947    0.4300
6      H6     -1.3624   -1.5214    0.0069 H        1 ZINC000008403947    0.4300
7      H7     -1.8484   -0.1871    0.8426 H        1 ZINC000008403947    0.4300
8      C8      0.7182   -0.4975   -1.2568 C.3      1 ZINC000008403947   -0.0900
9      C9      0.6316   -2.0003   -1.3275 C.ar     1 ZINC000008403947   -0.1300
10     C10     1.6116   -2.7776   -0.7388 C.ar     1 ZINC000008403947   -0.1000
11     C11     1.5322   -4.1561   -0.8037 C.ar     1 ZINC000008403947   -0.1100
12     C12     0.4726   -4.7574   -1.4569 C.ar     1 ZINC000008403947   -0.1000
13     C13    -0.5078   -3.9802   -2.0447 C.ar     1 ZINC000008403947   -0.1100
14     C14    -0.4307   -2.6017   -1.9762 C.ar     1 ZINC000008403947   -0.1400
15     H15     1.0039    1.9031    0.0027 H        1 ZINC000008403947    0.1100
16     H16    -0.5459    1.8868   -0.8726 H        1 ZINC000008403947    0.0800
17     H17    -0.5289    1.8773    0.9072 H        1 ZINC000008403947    0.0800
18     H18     0.2319   -0.1594    2.1383 H        1 ZINC000008403947    0.0800
19     H19     0.7568   -1.6008    1.2356 H        1 ZINC000008403947    0.0900
20     H20     1.7647   -0.1336    1.2338 H        1 ZINC000008403947    0.1100
21     H21     0.2444   -0.0644   -2.1377 H        1 ZINC000008403947    0.1000
22     H22     1.7648   -0.1951   -1.2215 H        1 ZINC000008403947    0.1200
23     H23     2.4394   -2.3078   -0.2286 H        1 ZINC000008403947    0.1300
24     H24     2.2982   -4.7633   -0.3444 H        1 ZINC000008403947    0.1300
25     H25     0.4110   -5.8344   -1.5082 H        1 ZINC000008403947    0.1300
26     H26    -1.3355   -4.4500   -2.5553 H        1 ZINC000008403947    0.1300
27     H27    -1.1966   -1.9945   -2.4354 H        1 ZINC000008403947    0.1200
@<TRIPOS>BOND
1     1     2     1
2     1     15    1
3     1     16    1
4     1     17    1
5     2     3     1
6     2     4     1
7     2     8     1
8     3     18    1
9     3     19    1
10    3     20    1
11    4     5     1
12    4     6     1
13    4     7     1
14    8     9     1
15    8     21    1
16    8     22    1
17    9     14    ar
18    9     10    ar
19    10    11    ar
20    10    23    1
21    11    12    ar
22    11    24    1
23    12    13    ar
24    12    25    1
25    13    14    ar
26    13    26    1
27    14    27    1
@<TRIPOS>SUBSTRUCTURE
1   ZINC000008403947 1     RESIDUE    1   A     ZIN   1
