@<TRIPOS>MOLECULE
ZINC000000000083
28   27    0    0    0
SMALL
USER_CHARGES
NO_NAME
@<TRIPOS>ATOM
1 C1       -0.2842     1.6070     0.2537 C.3    1 <0>      -0.1700
2 C2       -0.1445     0.0876     0.1410 C.3    1 <0>       0.0800
3 H3        0.3094    -0.3041     1.0513 H      1 <0>       0.1100
4 C4       -1.5272    -0.5389    -0.0498 C.3    1 <0>       0.0000
5 N5       -1.4134    -2.0025     0.0048 N.4    1 <0>      -0.2700
6 C6       -0.7487    -2.3957     1.2544 C.3    1 <0>      -0.0600
7 C7       -2.7544    -2.6001    -0.0456 C.3    1 <0>      -0.0500
8 C8       -0.6233    -2.4752    -1.1399 C.3    1 <0>      -0.0500
9 O9        0.6957    -0.2380    -0.9976 O.3    1 <0>      -0.3700
10 C10       2.0192    -0.3382    -0.7718 C.2    1 <0>       0.6500
11 N11       2.8550    -0.6379    -1.7858 N.am   1 <0>      -0.8200
12 O12       2.4601    -0.1585     0.3461 O.2    1 <0>      -0.5600
13 H13       0.7009     2.0534     0.3896 H      1 <0>       0.0900
14 H14      -0.7381     1.9987    -0.6566 H      1 <0>       0.0800
15 H15      -0.9149     1.8515     1.1085 H      1 <0>       0.0900
16 H16      -2.1936    -0.1966     0.7420 H      1 <0>       0.1500
17 H17      -1.9304    -0.2417    -1.0179 H      1 <0>       0.1400
18 H18      -1.3349    -2.0449     2.1037 H      1 <0>       0.1300
19 H19      -0.6642    -3.4817     1.2949 H      1 <0>       0.1300
20 H20       0.2463    -1.9522     1.2918 H      1 <0>       0.1200
21 H21      -3.2476    -2.3084    -0.9728 H      1 <0>       0.1200
22 H22      -2.6699    -3.6861    -0.0051 H      1 <0>       0.1200
23 H23      -3.3406    -2.2494     0.8038 H      1 <0>       0.1200
24 H24       0.4164    -2.1734    -1.0131 H      1 <0>       0.1200
25 H25      -0.6817    -3.5621    -1.1976 H      1 <0>       0.1200
26 H26      -1.0184    -2.0408    -2.0582 H      1 <0>       0.1200
27 H27       2.5030    -0.7813    -2.6782 H      1 <0>       0.4100
28 H28       3.8085    -0.7101    -1.6231 H      1 <0>       0.4400
@<TRIPOS>BOND
1    1    2 1
2    1   13 1
3    1   14 1
4    1   15 1
5    2    3 1
6    2    4 1
7    2    9 1
8    4    5 1
9    4   16 1
10    4   17 1
11    5    6 1
12    5    7 1
13    5    8 1
14    6   18 1
15    6   19 1
16    6   20 1
17    7   21 1
18    7   22 1
19    7   23 1
20    8   24 1
21    8   25 1
22    8   26 1
23    9   10 1
24   10   11 am
25   10   12 2
26   11   27 1
27   11   28 1
