@<TRIPOS>MOLECULE
ZINC000100299039
29   30    0    0    0
SMALL
USER_CHARGES
NO_NAME
@<TRIPOS>ATOM
1 C1        0.5258     1.2044     1.4485 C.3    1 <0>       0.0600
2 N2        1.0309    -0.1131     1.8426 N.pl3  1 <0>      -0.5600
3 C3        0.2910    -0.9436     2.8055 C.3    1 <0>       0.0900
4 C4        1.3193    -1.5596     3.7659 C.3    1 <0>      -0.1600
5 C5        2.3026    -2.4012     2.9498 C.3    1 <0>       0.0700
6 N6        2.8120    -1.6401     1.8149 N.pl3  1 <0>      -0.6100
7 H7        3.6454    -1.9258     1.4091 H      1 <0>       0.4400
8 C8        2.2095    -0.6039     1.3130 C.cat  1 <0>       0.5500
9 C9        2.8043     0.0710     0.1574 C.2    1 <0>      -0.2300
10 C10       3.5577    -0.6290    -0.7203 C.2    1 <0>       0.0700
11 C11       3.5796    -2.0894    -0.6626 C.2    1 <0>      -0.3000
12 C12       4.6606    -2.8791    -0.9459 C.2    1 <0>      -0.0400
13 C13       4.4009    -4.2237    -0.8100 C.2    1 <0>      -0.1500
14 C14       3.1549    -4.5254    -0.4299 C.2    1 <0>      -0.2100
15 S15       2.2233    -3.1130    -0.2108 S.3    1 <0>       0.1800
16 H16       1.2525     1.6929     0.7995 H      1 <0>       0.1000
17 H17      -0.4172     1.0871     0.9146 H      1 <0>       0.0900
18 H18       0.3662     1.8133     2.3384 H      1 <0>       0.1000
19 H19      -0.4133    -0.3261     3.3630 H      1 <0>       0.1200
20 H20      -0.2440    -1.7339     2.2789 H      1 <0>       0.1000
21 H21       1.8583    -0.7661     4.2835 H      1 <0>       0.0900
22 H22       0.8092    -2.1933     4.4914 H      1 <0>       0.1300
23 H23       3.1360    -2.6980     3.5866 H      1 <0>       0.1200
24 H24       1.7946    -3.2939     2.5848 H      1 <0>       0.1100
25 H25       2.6412     1.1279     0.0064 H      1 <0>       0.1800
26 H26       4.1433    -0.1091    -1.4640 H      1 <0>       0.1700
27 H27       5.6209    -2.4866    -1.2462 H      1 <0>       0.1600
28 H28       5.1488    -4.9800    -0.9970 H      1 <0>       0.1600
29 H29       2.7882    -5.5297    -0.2776 H      1 <0>       0.1800
@<TRIPOS>BOND
1    1    2 1
2    1   16 1
3    1   17 1
4    1   18 1
5    2    8 ar
6    2    3 1
7    3    4 1
8    3   19 1
9    3   20 1
10    4    5 1
11    4   21 1
12    4   22 1
13    5    6 1
14    5   23 1
15    5   24 1
16    6    7 1
17    6    8 ar
18    8    9 1
19    9   10 2
20    9   25 1
21   10   11 1
22   10   26 1
23   11   15 1
24   11   12 2
25   12   13 1
26   12   27 1
27   13   14 2
28   13   28 1
29   14   15 1
30   14   29 1
