@<TRIPOS>MOLECULE
ZINC000019632668
59   62    0    0    0
SMALL
USER_CHARGES
NO_NAME
@<TRIPOS>ATOM
1 C1        0.4053     0.5499    -0.8666 C.3    1 <0>      -0.1700
2 C2        0.5716    -0.9196    -0.4742 C.3    1 <0>       0.1200
3 N3        1.0488    -1.0048     0.9083 N.am   1 <0>      -0.6200
4 C4        2.4641    -1.0228     1.2962 C.3    1 <0>       0.1000
5 C5        2.4830    -0.6815     2.8027 C.3    1 <0>      -0.0900
6 H6        3.2599    -1.2440     3.3204 H      1 <0>       0.1200
7 C7        2.6619     0.8222     3.0212 C.3    1 <0>      -0.1500
8 C8        4.0378     1.2520     2.5085 C.3    1 <0>      -0.0100
9 N9        4.2096     2.6957     2.7183 N.4    1 <0>      -0.3800
10 H10       3.4456     3.1920     2.2845 H      1 <0>       0.4200
11 C11       5.4791     3.1303     2.1194 C.3    1 <0>      -0.0400
12 C12       5.6556     4.6348     2.3392 C.3    1 <0>       0.0400
13 O13       5.6131     4.9147     3.7412 O.3    1 <0>      -0.3600
14 C14       4.4042     4.4878     4.3752 C.3    1 <0>       0.0400
15 C15       4.2251     2.9830     4.1592 C.3    1 <0>      -0.0500
16 C16       1.0759    -1.1427     3.2481 C.3    1 <0>       0.0100
17 C17       1.1252    -2.5543     3.7734 C.ar   1 <0>      -0.0700
18 C18       0.2658    -3.5109     3.2664 C.ar   1 <0>      -0.1100
19 C19       0.3110    -4.8057     3.7483 C.ar   1 <0>      -0.1100
20 C20       1.2161    -5.1441     4.7369 C.ar   1 <0>      -0.1100
21 C21       2.0761    -4.1876     5.2433 C.ar   1 <0>      -0.1100
22 C22       2.0338    -2.8938     4.7584 C.ar   1 <0>      -0.1100
23 C23       0.5221    -0.2107     4.2949 C.ar   1 <0>      -0.0700
24 C24       1.1081    -0.1496     5.5454 C.ar   1 <0>      -0.1200
25 C25       0.6002     0.7053     6.5057 C.ar   1 <0>      -0.1200
26 C26      -0.4934     1.4994     6.2153 C.ar   1 <0>      -0.1100
27 C27      -1.0788     1.4389     4.9645 C.ar   1 <0>      -0.1100
28 C28      -0.5683     0.5872     4.0028 C.ar   1 <0>      -0.1100
29 C29       0.2466    -1.0709     1.9849 C.2    1 <0>       0.5300
30 O30      -0.9657    -1.0792     1.9483 O.2    1 <0>      -0.5000
31 H31       1.3650     1.0595    -0.7814 H      1 <0>       0.0500
32 H32       0.0502     0.6133    -1.8952 H      1 <0>       0.0800
33 H33      -0.3179     1.0236    -0.2027 H      1 <0>       0.0600
34 H34      -0.3882    -1.4293    -0.5593 H      1 <0>       0.0900
35 H35       1.2947    -1.3933    -1.1380 H      1 <0>       0.0800
36 H36       2.8887    -2.0126     1.1283 H      1 <0>       0.0900
37 H37       3.0192    -0.2729     0.7326 H      1 <0>       0.0800
38 H38       1.8866     1.3630     2.4784 H      1 <0>       0.0900
39 H39       2.5842     1.0465     4.0851 H      1 <0>       0.1000
40 H40       4.8130     0.7111     3.0513 H      1 <0>       0.1400
41 H41       4.1154     1.0277     1.4446 H      1 <0>       0.1300
42 H42       6.3045     2.5949     2.5886 H      1 <0>       0.1400
43 H43       5.4684     2.9177     1.0504 H      1 <0>       0.1400
44 H44       6.6165     4.9516     1.9337 H      1 <0>       0.1400
45 H45       4.8522     5.1729     1.8361 H      1 <0>       0.0800
46 H46       4.4594     4.6982     5.4433 H      1 <0>       0.1400
47 H47       3.5579     5.0208     3.9418 H      1 <0>       0.0800
48 H48       3.2837     2.6612     4.6045 H      1 <0>       0.1400
49 H49       5.0510     2.4476     4.6277 H      1 <0>       0.1400
50 H50      -0.4413    -3.2466     2.4940 H      1 <0>       0.1200
51 H51      -0.3609    -5.5530     3.3526 H      1 <0>       0.1300
52 H52       1.2509    -6.1555     5.1139 H      1 <0>       0.1300
53 H53       2.7830    -4.4519     6.0159 H      1 <0>       0.1300
54 H54       2.7057    -2.1466     5.1540 H      1 <0>       0.1200
55 H55       1.9625    -0.7700     5.7723 H      1 <0>       0.1300
56 H56       1.0576     0.7525     7.4829 H      1 <0>       0.1300
57 H57      -0.8906     2.1668     6.9657 H      1 <0>       0.1300
58 H58      -1.9334     2.0591     4.7377 H      1 <0>       0.1300
59 H59      -1.0256     0.5399     3.0256 H      1 <0>       0.1400
@<TRIPOS>BOND
1    1    2 1
2    1   31 1
3    1   32 1
4    1   33 1
5    2    3 1
6    2   34 1
7    2   35 1
8    3   29 am
9    3    4 1
10    4    5 1
11    4   36 1
12    4   37 1
13    5    6 1
14    5    7 1
15    5   16 1
16    7    8 1
17    7   38 1
18    7   39 1
19    8    9 1
20    8   40 1
21    8   41 1
22    9   10 1
23    9   15 1
24    9   11 1
25   11   12 1
26   11   42 1
27   11   43 1
28   12   13 1
29   12   44 1
30   12   45 1
31   13   14 1
32   14   15 1
33   14   46 1
34   14   47 1
35   15   48 1
36   15   49 1
37   16   17 1
38   16   23 1
39   16   29 1
40   17   22 ar
41   17   18 ar
42   18   19 ar
43   18   50 1
44   19   20 ar
45   19   51 1
46   20   21 ar
47   20   52 1
48   21   22 ar
49   21   53 1
50   22   54 1
51   23   28 ar
52   23   24 ar
53   24   25 ar
54   24   55 1
55   25   26 ar
56   25   56 1
57   26   27 ar
58   26   57 1
59   27   28 ar
60   27   58 1
61   28   59 1
62   29   30 2
