@<TRIPOS>MOLECULE
ZINC000000895199
25   25    0    0    0
SMALL
USER_CHARGES
NO_NAME
@<TRIPOS>ATOM
1 N1       -0.0116     1.0048     0.0076 N.4    1 <0>      -0.6100
2 H2        0.0021    -0.0041     0.0020 H      1 <0>       0.4300
3 H3        0.9350     1.3541     0.0004 H      1 <0>       0.4100
4 H4       -0.4996     1.3391    -0.8099 H      1 <0>       0.4300
5 C5       -0.6992     1.4786     1.2162 C.3    1 <0>      -0.0400
6 H6       -0.1720     1.1175     2.0992 H      1 <0>       0.1300
7 C7       -0.7199     3.0084     1.2246 C.3    1 <0>      -0.0800
8 C8        0.6896     3.5293     1.3378 C.ar   1 <0>      -0.1000
9 C9        1.2435     3.7544     2.5838 C.ar   1 <0>      -0.1000
10 C10       2.5364     4.2328     2.6930 C.ar   1 <0>      -0.1200
11 C11       3.2795     4.4869     1.5519 C.ar   1 <0>       0.0900
12 O12       4.5513     4.9569     1.6575 O.3    1 <0>      -0.4900
13 C13       2.7218     4.2597     0.2969 C.ar   1 <0>       0.0900
14 O14       3.4475     4.5073    -0.8262 O.3    1 <0>      -0.4800
15 C15       1.4280     3.7756     0.1948 C.ar   1 <0>      -0.1500
16 C16      -2.1130     0.9569     1.2269 C.2    1 <0>       0.4900
17 O17      -2.5109     0.2556     0.3124 O.co2  1 <0>      -0.6700
18 O18      -2.8589     1.2363     2.1500 O.co2  1 <0>      -0.6300
19 H19      -1.1680     3.3708     0.2994 H      1 <0>       0.0900
20 H20      -1.3062     3.3592     2.0739 H      1 <0>       0.1200
21 H21       0.6652     3.5567     3.4743 H      1 <0>       0.1400
22 H22       2.9667     4.4085     3.6679 H      1 <0>       0.1400
23 H23       5.2243     4.2640     1.7021 H      1 <0>       0.3900
24 H24       3.9625     3.7500    -1.1366 H      1 <0>       0.3900
25 H25       0.9929     3.5985    -0.7777 H      1 <0>       0.1300
@<TRIPOS>BOND
1    1    2 1
2    1    3 1
3    1    4 1
4    1    5 1
5    5    6 1
6    5    7 1
7    5   16 1
8    7    8 1
9    7   19 1
10    7   20 1
11    8   15 ar
12    8    9 ar
13    9   10 ar
14    9   21 1
15   10   11 ar
16   10   22 1
17   11   12 1
18   11   13 ar
19   12   23 1
20   13   14 1
21   13   15 ar
22   14   24 1
23   15   25 1
24   16   17 ar
25   16   18 ar
