@<TRIPOS>MOLECULE
ZINC000000057624
24   24    0    0    0
SMALL
USER_CHARGES
NO_NAME
@<TRIPOS>ATOM
1 N1       -0.0116     1.0048     0.0076 N.4    1 <0>      -0.6300
2 H2        0.0021    -0.0041     0.0020 H      1 <0>       0.4400
3 H3        0.9350     1.3541     0.0004 H      1 <0>       0.4400
4 H4       -0.4996     1.3391    -0.8099 H      1 <0>       0.4400
5 C5       -0.6992     1.4786     1.2162 C.3    1 <0>      -0.0400
6 C6       -2.1346     0.9490     1.2270 C.3    1 <0>       0.1400
7 H7       -2.1198    -0.1409     1.2210 H      1 <0>       0.1300
8 O8       -2.8257     1.4224     0.0693 O.3    1 <0>      -0.5500
9 C9       -2.8400     1.4350     2.4669 C.ar   1 <0>      -0.1400
10 C10      -3.4443     2.6779     2.4740 C.ar   1 <0>      -0.1000
11 C11      -4.0924     3.1286     3.6094 C.ar   1 <0>      -0.1200
12 C12      -4.1373     2.3336     4.7428 C.ar   1 <0>       0.1100
13 O13      -4.7747     2.7751     5.8601 O.3    1 <0>      -0.4900
14 C14      -3.5291     1.0816     4.7356 C.ar   1 <0>       0.0900
15 O15      -3.5709     0.2972     5.8457 O.3    1 <0>      -0.4800
16 C16      -2.8860     0.6340     3.5932 C.ar   1 <0>      -0.1100
17 H17      -0.1720     1.1175     2.0992 H      1 <0>       0.1500
18 H18      -0.7140     2.5685     1.2222 H      1 <0>       0.1400
19 H19      -2.8776     2.3861     0.0089 H      1 <0>       0.3900
20 H20      -3.4099     3.2988     1.5909 H      1 <0>       0.1300
21 H21      -4.5632     4.1006     3.6125 H      1 <0>       0.1400
22 H22      -5.7115     2.5386     5.8979 H      1 <0>       0.4000
23 H23      -4.3356    -0.2936     5.8813 H      1 <0>       0.4000
24 H24      -2.4133    -0.3370     3.5850 H      1 <0>       0.1400
@<TRIPOS>BOND
1    1    2 1
2    1    3 1
3    1    4 1
4    1    5 1
5    5    6 1
6    5   17 1
7    5   18 1
8    6    7 1
9    6    8 1
10    6    9 1
11    8   19 1
12    9   16 ar
13    9   10 ar
14   10   11 ar
15   10   20 1
16   11   12 ar
17   11   21 1
18   12   13 1
19   12   14 ar
20   13   22 1
21   14   15 1
22   14   16 ar
23   15   23 1
24   16   24 1
