@<TRIPOS>MOLECULE
ZINC000003797541
57   61    0    0    0
SMALL
USER_CHARGES
NO_NAME
@<TRIPOS>ATOM
1 C1        0.1202     1.5959     0.0840 C.3    1 <0>      -0.1500
2 C2        0.1646     0.0668     0.0585 C.3    1 <0>      -0.0200
3 C3       -1.2373    -0.4746     0.2135 C.3    1 <0>      -0.1000
4 C4       -1.8349     0.1919     1.4645 C.3    1 <0>      -0.1200
5 C5       -0.9790    -0.0454     2.7046 C.3    1 <0>      -0.0700
6 H6       -1.0105    -1.1085     2.9434 H      1 <0>       0.0700
7 C7        0.4872     0.3562     2.4864 C.3    1 <0>      -0.0700
8 H8        0.5633     1.4289     2.3090 H      1 <0>       0.0900
9 C9        1.2793    -0.0330     3.7398 C.3    1 <0>      -0.0800
10 C10       0.6552     0.6187     4.9393 C.2    1 <0>      -0.1500
11 C11      -0.6018     0.9496     4.9919 C.2    1 <0>      -0.1000
12 C12      -1.1222     1.5966     6.2644 C.3    1 <0>      -0.1200
13 C13      -2.3680     0.8321     6.7216 C.3    1 <0>       0.1100
14 H14      -2.0898    -0.1858     6.9948 H      1 <0>       0.0500
15 O15      -2.9416     1.4893     7.8534 O.3    1 <0>      -0.5700
16 C16      -3.3885     0.7936     5.5828 C.3    1 <0>      -0.1200
17 C17      -2.8132     0.0088     4.4020 C.3    1 <0>      -0.1000
18 C18      -1.5558     0.7240     3.8815 C.3    1 <0>      -0.0200
19 C19      -1.9738     2.0997     3.3583 C.3    1 <0>      -0.1500
20 C20       0.9866    -0.4398     1.2798 C.3    1 <0>      -0.0800
21 H21       0.8707    -1.5120     1.4381 H      1 <0>       0.0800
22 C22       2.3937    -0.0981     0.7687 C.3    1 <0>      -0.0900
23 C23       2.2833    -0.4585    -0.7129 C.2    1 <0>      -0.1400
24 C24       0.9813    -0.3815    -1.1065 C.2    1 <0>      -0.0900
25 C25       0.4708    -0.6829    -2.4606 C.ar   1 <0>      -0.0800
26 C26       0.8509     0.1017    -3.5550 C.ar   1 <0>      -0.0700
27 C27       0.3453    -0.2228    -4.8020 C.ar   1 <0>      -0.1700
28 C28      -0.5112    -1.3015    -4.9254 C.ar   1 <0>       0.0900
29 N29      -0.8527    -2.0235    -3.8753 N.ar   1 <0>      -0.4800
30 C30      -0.3937    -1.7581    -2.6699 C.ar   1 <0>       0.1100
31 H31       1.1368     1.9892     0.0743 H      1 <0>       0.0600
32 H32      -0.4179     1.9584    -0.7919 H      1 <0>       0.0500
33 H33      -0.3898     1.9296     0.9876 H      1 <0>       0.0700
34 H34      -1.8333    -0.2225    -0.6637 H      1 <0>       0.0600
35 H35      -1.2066    -1.5561     0.3461 H      1 <0>       0.0600
36 H36      -1.9156     1.2648     1.2899 H      1 <0>       0.0800
37 H37      -2.8318    -0.2128     1.6395 H      1 <0>       0.0600
38 H38       1.2589    -1.1160     3.8618 H      1 <0>       0.0700
39 H39       2.3109     0.3036     3.6378 H      1 <0>       0.0700
40 H40       1.2781     0.8219     5.7979 H      1 <0>       0.1000
41 H41      -0.3574     1.5490     7.0396 H      1 <0>       0.0700
42 H42      -1.3816     2.6368     6.0676 H      1 <0>       0.0800
43 H43      -2.3488     1.5504     8.6150 H      1 <0>       0.3800
44 H44      -4.3013     0.3094     5.9299 H      1 <0>       0.0700
45 H45      -3.6165     1.8111     5.2655 H      1 <0>       0.0700
46 H46      -2.5384    -0.9934     4.7308 H      1 <0>       0.0600
47 H47      -3.5610    -0.0596     3.6119 H      1 <0>       0.0700
48 H48      -2.3011     2.7213     4.1917 H      1 <0>       0.0600
49 H49      -1.1260     2.5730     2.8631 H      1 <0>       0.0600
50 H50      -2.7920     1.9848     2.6474 H      1 <0>       0.0600
51 H51       2.6085     0.9627     0.8971 H      1 <0>       0.0800
52 H52       3.1478    -0.7100     1.2637 H      1 <0>       0.0700
53 H53       3.1110    -0.7390    -1.3473 H      1 <0>       0.1300
54 H54       1.5213     0.9391    -3.4300 H      1 <0>       0.1300
55 H55       0.6165     0.3606    -5.6694 H      1 <0>       0.1400
56 H56      -0.9072    -1.5569    -5.8971 H      1 <0>       0.1600
57 H57      -0.6963    -2.3721    -1.8345 H      1 <0>       0.1500
@<TRIPOS>BOND
1    1    2 1
2    1   31 1
3    1   32 1
4    1   33 1
5    2   20 1
6    2   24 1
7    2    3 1
8    3    4 1
9    3   34 1
10    3   35 1
11    4    5 1
12    4   36 1
13    4   37 1
14    5    6 1
15    5   18 1
16    5    7 1
17    7    8 1
18    7    9 1
19    7   20 1
20    9   10 1
21    9   38 1
22    9   39 1
23   10   11 2
24   10   40 1
25   11   18 1
26   11   12 1
27   12   13 1
28   12   41 1
29   12   42 1
30   13   14 1
31   13   15 1
32   13   16 1
33   15   43 1
34   16   17 1
35   16   44 1
36   16   45 1
37   17   18 1
38   17   46 1
39   17   47 1
40   18   19 1
41   19   48 1
42   19   49 1
43   19   50 1
44   20   21 1
45   20   22 1
46   22   23 1
47   22   51 1
48   22   52 1
49   23   24 2
50   23   53 1
51   24   25 1
52   25   30 ar
53   25   26 ar
54   26   27 ar
55   26   54 1
56   27   28 ar
57   27   55 1
58   28   29 ar
59   28   56 1
60   29   30 ar
61   30   57 1
