@<TRIPOS>MOLECULE
ZINC000035653007
46   49    0    0    0
SMALL
USER_CHARGES
NO_NAME
@<TRIPOS>ATOM
1 C1        4.2526    -1.8073     2.0964 C.3    1 <0>      -0.1400
2 C2        3.1631    -2.4636     1.2882 C.2    1 <0>       0.4500
3 O3        2.8584    -2.0147     0.2043 O.2    1 <0>      -0.4800
4 O4        2.5301    -3.5453     1.7686 O.3    1 <0>      -0.2400
5 C5        1.5581    -4.0880     0.9895 C.2    1 <0>      -0.0500
6 C6        0.8237    -5.1572     1.3071 C.2    1 <0>      -0.1300
7 C7       -0.1179    -5.5411     0.3579 C.2    1 <0>      -0.1000
8 C8       -0.1307    -4.7591    -0.7391 C.2    1 <0>      -0.2100
9 C9       -1.0615    -4.9677    -1.9153 C.3    1 <0>      -0.0400
10 C10      -1.6542    -6.3780    -1.8090 C.3    1 <0>       0.0600
11 N11      -2.1605    -6.5849    -0.4447 N.3    1 <0>      -0.5200
12 C12      -3.0621    -7.7433    -0.3879 C.3    1 <0>       0.0900
13 H13      -2.5206    -8.6403    -0.6881 H      1 <0>       0.0800
14 C14      -4.2240    -7.5218    -1.3216 C.2    1 <0>       0.4000
15 O15      -4.4460    -6.4180    -1.7581 O.2    1 <0>      -0.4200
16 C16      -5.1090    -8.6779    -1.7107 C.3    1 <0>      -0.2300
17 C17      -6.6104    -8.4091    -1.8308 C.3    1 <0>      -0.1500
18 C18      -5.7695    -8.6290    -3.0899 C.3    1 <0>      -0.1500
19 C19      -3.5739    -7.9129     1.0194 C.ar   1 <0>      -0.1200
20 C20      -3.6967    -6.8135     1.8474 C.ar   1 <0>      -0.0600
21 C21      -4.1662    -6.9688     3.1386 C.ar   1 <0>      -0.1300
22 C22      -4.5127    -8.2238     3.6028 C.ar   1 <0>      -0.0800
23 C23      -4.3903    -9.3251     2.7766 C.ar   1 <0>      -0.1500
24 C24      -3.9266    -9.1698     1.4814 C.ar   1 <0>       0.1100
25 F25      -3.8066   -10.2455     0.6729 F      1 <0>      -0.1400
26 C26      -1.0591    -6.7274     0.5168 C.3    1 <0>       0.1200
27 S27       1.0691    -3.4859    -0.5879 S.3    1 <0>       0.2100
28 H28       4.6460    -0.9512     1.5483 H      1 <0>       0.1100
29 H29       3.8456    -1.4722     3.0504 H      1 <0>       0.1100
30 H30       5.0543    -2.5239     2.2750 H      1 <0>       0.1100
31 H31       0.9524    -5.6885     2.2385 H      1 <0>       0.1500
32 H32      -1.8622    -4.2287    -1.8868 H      1 <0>       0.0900
33 H33      -0.5043    -4.8719    -2.8472 H      1 <0>       0.0800
34 H34      -2.4723    -6.4842    -2.5215 H      1 <0>       0.0900
35 H35      -0.8816    -7.1155    -2.0269 H      1 <0>       0.0400
36 H36      -4.8005    -9.6534    -1.3348 H      1 <0>       0.1300
37 H37      -7.2900    -9.2078    -1.5336 H      1 <0>       0.1100
38 H38      -6.9581    -7.3961    -1.6283 H      1 <0>       0.1000
39 H39      -5.5640    -7.7606    -3.7159 H      1 <0>       0.1000
40 H40      -5.8960    -9.5723    -3.6212 H      1 <0>       0.1100
41 H41      -3.4255    -5.8326     1.4859 H      1 <0>       0.1500
42 H42      -4.2618    -6.1090     3.7850 H      1 <0>       0.1300
43 H43      -4.8790    -8.3440     4.6117 H      1 <0>       0.1300
44 H44      -4.6606   -10.3056     3.1397 H      1 <0>       0.1400
45 H45      -0.5182    -7.6528     0.3189 H      1 <0>       0.0500
46 H46      -1.4585    -6.7440     1.5308 H      1 <0>       0.1000
@<TRIPOS>BOND
1    1    2 1
2    1   28 1
3    1   29 1
4    1   30 1
5    2    3 2
6    2    4 1
7    4    5 1
8    5   27 1
9    5    6 2
10    6    7 1
11    6   31 1
12    7   26 1
13    7    8 2
14    8    9 1
15    8   27 1
16    9   10 1
17    9   32 1
18    9   33 1
19   10   11 1
20   10   34 1
21   10   35 1
22   11   12 1
23   11   26 1
24   12   13 1
25   12   14 1
26   12   19 1
27   14   15 2
28   14   16 1
29   16   18 1
30   16   17 1
31   16   36 1
32   17   18 1
33   17   37 1
34   17   38 1
35   18   39 1
36   18   40 1
37   19   24 ar
38   19   20 ar
39   20   21 ar
40   20   41 1
41   21   22 ar
42   21   42 1
43   22   23 ar
44   22   43 1
45   23   24 ar
46   23   44 1
47   24   25 1
48   26   45 1
49   26   46 1
