@<TRIPOS>MOLECULE
ZINC000049783788
87    91    1     0     0
SMALL
USER_CHARGES
@<TRIPOS>ATOM
1      C1      2.4034   -0.4592    2.6357 C.3      1 ZINC000049783788   -0.1500
2      C2      1.5909   -1.3957    1.7392 C.3      1 ZINC000049783788   -0.1300
3      C3      2.4851   -1.9335    0.6202 C.3      1 ZINC000049783788   -0.1100
4      C4      1.6726   -2.8700   -0.2763 C.3      1 ZINC000049783788   -0.1100
5      C5      2.5534   -3.3997   -1.3784 C.2      1 ZINC000049783788    0.4600
6      O6      3.7121   -3.0628   -1.4405 O.2      1 ZINC000049783788   -0.5000
7      O7      2.0507   -4.2458   -2.2912 O.3      1 ZINC000049783788   -0.3400
8      C8      2.9567   -4.7157   -3.3240 C.3      1 ZINC000049783788    0.0200
9      C9      2.2212   -5.6491   -4.2507 C.2      1 ZINC000049783788    0.3200
10     O10     1.0540   -5.8933   -4.0603 O.2      1 ZINC000049783788   -0.3900
11     C11     2.9423   -6.2779   -5.4150 C.3      1 ZINC000049783788    0.1100
12     O12     3.8789   -5.3467   -5.9608 O.3      1 ZINC000049783788   -0.5300
13     C13     1.9334   -6.6821   -6.4874 C.3      1 ZINC000049783788   -0.1000
14     C14     1.0770   -7.8263   -6.0089 C.ar     1 ZINC000049783788   -0.0400
15     C15    -0.1215   -8.0639   -6.6955 C.ar     1 ZINC000049783788    0.1500
16     O16    -0.4679   -7.2716   -7.7402 O.3      1 ZINC000049783788   -0.4700
17     C17    -0.9587   -9.1085   -6.3122 C.ar     1 ZINC000049783788   -0.1300
18     C18    -0.5909   -9.9283   -5.2251 C.ar     1 ZINC000049783788   -0.1400
19     C19    -1.4709  -11.0398   -4.8177 C.2      1 ZINC000049783788    0.4300
20     O20    -1.3060  -11.5952   -3.7483 O.2      1 ZINC000049783788   -0.3900
21     C21    -2.5539  -11.4693   -5.7230 C.ar     1 ZINC000049783788   -0.1600
22     C22    -3.2163  -12.6813   -5.5154 C.ar     1 ZINC000049783788    0.1800
23     O23    -2.8695  -13.4782   -4.4745 O.3      1 ZINC000049783788   -0.2900
24     C24    -3.5914  -14.7024   -4.3260 C.3      1 ZINC000049783788    0.0200
25     C25    -4.2349  -13.0666   -6.3828 C.ar     1 ZINC000049783788   -0.1900
26     C26    -4.5925  -12.2590   -7.4426 C.ar     1 ZINC000049783788   -0.0600
27     C27    -3.9441  -11.0534   -7.6604 C.ar     1 ZINC000049783788   -0.1100
28     C28    -2.9239  -10.6503   -6.8076 C.ar     1 ZINC000049783788   -0.0800
29     C29    -2.2209   -9.3678   -7.0289 C.2      1 ZINC000049783788    0.4400
30     O30    -2.6779   -8.5383   -7.7914 O.2      1 ZINC000049783788   -0.4000
31     C31     0.6008   -9.6770   -4.5512 C.ar     1 ZINC000049783788    0.1900
32     O32     0.9602  -10.4599   -3.5037 O.3      1 ZINC000049783788   -0.4700
33     C33     1.4319   -8.6203   -4.9476 C.ar     1 ZINC000049783788   -0.0800
34     C34     2.6988   -8.4042   -4.1602 C.3      1 ZINC000049783788    0.1500
35     H35     2.4570   -7.9099   -3.2193 H        1 ZINC000049783788    0.0800
36     O36     3.3042   -9.6692   -3.8855 O.3      1 ZINC000049783788   -0.3800
37     C37     3.9569   -9.7378   -2.6162 C.3      1 ZINC000049783788    0.2500
38     H38     3.3033   -9.3235   -1.8485 H        1 ZINC000049783788    0.1200
39     C39     4.2736  -11.1981   -2.2832 C.3      1 ZINC000049783788   -0.1500
40     C40     5.2397  -11.7551   -3.3334 C.3      1 ZINC000049783788    0.1600
41     H41     4.7602  -11.7442   -4.3122 H        1 ZINC000049783788    0.1200
42     N42     5.6058  -13.1295   -2.9824 N.am     1 ZINC000049783788   -0.6900
43     C43     4.8141  -14.1542   -3.3562 C.2      1 ZINC000049783788    0.4800
44     O44     3.7986  -13.9385   -3.9831 O.2      1 ZINC000049783788   -0.4700
45     C45     5.1908  -15.5680   -2.9951 C.3      1 ZINC000049783788    0.4500
46     F46     4.2224  -16.4490   -3.4882 F        1 ZINC000049783788   -0.1500
47     F47     6.4333  -15.8779   -3.5585 F        1 ZINC000049783788   -0.1700
48     F48     5.2664  -15.6895   -1.6034 F        1 ZINC000049783788   -0.1700
49     C49     6.4971  -10.8811   -3.3690 C.3      1 ZINC000049783788    0.0700
50     H50     7.1664  -11.2375   -4.1520 H        1 ZINC000049783788    0.0800
51     O51     7.1615  -10.9486   -2.1056 O.3      1 ZINC000049783788   -0.5500
52     C52     6.0945   -9.4330   -3.6600 C.3      1 ZINC000049783788    0.0600
53     H53     5.6246   -9.3767   -4.6419 H        1 ZINC000049783788    0.0800
54     C54     7.3389   -8.5432   -3.6380 C.3      1 ZINC000049783788   -0.1500
55     O55     5.1718   -8.9869   -2.6638 O.3      1 ZINC000049783788   -0.3700
56     C56     3.6801   -7.5377   -4.9462 C.3      1 ZINC000049783788   -0.1300
57     H57     3.2394   -1.0071    3.0704 H        1 ZINC000049783788    0.0600
58     H58     2.7832    0.3727    2.0426 H        1 ZINC000049783788    0.0600
59     H59     1.7663   -0.0761    3.4329 H        1 ZINC000049783788    0.0600
60     H60     1.2111   -2.2276    2.3323 H        1 ZINC000049783788    0.0600
61     H61     0.7548   -0.8478    1.3045 H        1 ZINC000049783788    0.0600
62     H62     2.8649   -1.1016    0.0271 H        1 ZINC000049783788    0.0700
63     H63     3.3212   -2.4814    1.0549 H        1 ZINC000049783788    0.0700
64     H64     1.2928   -3.7019    0.3168 H        1 ZINC000049783788    0.1100
65     H65     0.8366   -2.3221   -0.7110 H        1 ZINC000049783788    0.1100
66     H66     3.3346   -3.8645   -3.8905 H        1 ZINC000049783788    0.1100
67     H67     3.7908   -5.2443   -2.8627 H        1 ZINC000049783788    0.1100
68     H68     3.4771   -4.5289   -6.2845 H        1 ZINC000049783788    0.3900
69     H69     1.2957   -5.8292   -6.7200 H        1 ZINC000049783788    0.1000
70     H70     2.4682   -6.9857   -7.3873 H        1 ZINC000049783788    0.1100
71     H71    -0.1441   -7.5849   -8.5958 H        1 ZINC000049783788    0.3900
72     H72    -3.2155  -15.2429   -3.4573 H        1 ZINC000049783788    0.1100
73     H73    -4.6507  -14.4851   -4.1883 H        1 ZINC000049783788    0.0600
74     H74    -3.4589  -15.3130   -5.2192 H        1 ZINC000049783788    0.0600
75     H75    -4.7480  -14.0038   -6.2252 H        1 ZINC000049783788    0.1400
76     H76    -5.3844  -12.5689   -8.1084 H        1 ZINC000049783788    0.1400
77     H77    -4.2314  -10.4280   -8.4927 H        1 ZINC000049783788    0.1400
78     H78     1.5412  -11.1949   -3.7432 H        1 ZINC000049783788    0.4000
79     H79     4.7349  -11.2552   -1.2973 H        1 ZINC000049783788    0.1000
80     H80     3.3527  -11.7812   -2.2898 H        1 ZINC000049783788    0.0900
81     H81     6.4181  -13.3021   -2.4809 H        1 ZINC000049783788    0.4200
82     H82     7.9682  -10.4176   -2.0566 H        1 ZINC000049783788    0.3900
83     H83     8.0428   -8.8841   -4.3973 H        1 ZINC000049783788    0.0800
84     H84     7.0521   -7.5122   -3.8452 H        1 ZINC000049783788    0.0700
85     H85     7.8085   -8.5993   -2.6560 H        1 ZINC000049783788    0.0700
86     H86     4.0481   -8.0909   -5.8102 H        1 ZINC000049783788    0.1000
87     H87     4.5163   -7.2567   -4.3059 H        1 ZINC000049783788    0.1000
@<TRIPOS>BOND
1     1     2     1
2     1     57    1
3     1     58    1
4     1     59    1
5     2     3     1
6     2     60    1
7     2     61    1
8     3     4     1
9     3     62    1
10    3     63    1
11    4     5     1
12    4     64    1
13    4     65    1
14    5     6     2
15    5     7     1
16    7     8     1
17    8     9     1
18    8     66    1
19    8     67    1
20    9     10    2
21    9     11    1
22    11    56    1
23    11    12    1
24    11    13    1
25    12    68    1
26    13    14    1
27    13    69    1
28    13    70    1
29    14    33    ar
30    14    15    ar
31    15    16    1
32    15    17    ar
33    16    71    1
34    17    29    1
35    17    18    ar
36    18    19    1
37    18    31    ar
38    19    20    2
39    19    21    1
40    21    28    ar
41    21    22    ar
42    22    23    1
43    22    25    ar
44    23    24    1
45    24    72    1
46    24    73    1
47    24    74    1
48    25    26    ar
49    25    75    1
50    26    27    ar
51    26    76    1
52    27    28    ar
53    27    77    1
54    28    29    1
55    29    30    2
56    31    32    1
57    31    33    ar
58    32    78    1
59    33    34    1
60    34    35    1
61    34    36    1
62    34    56    1
63    36    37    1
64    37    38    1
65    37    55    1
66    37    39    1
67    39    40    1
68    39    79    1
69    39    80    1
70    40    41    1
71    40    42    1
72    40    49    1
73    42    43    am
74    42    81    1
75    43    44    2
76    43    45    1
77    45    46    1
78    45    47    1
79    45    48    1
80    49    50    1
81    49    51    1
82    49    52    1
83    51    82    1
84    52    53    1
85    52    54    1
86    52    55    1
87    54    83    1
88    54    84    1
89    54    85    1
90    56    86    1
91    56    87    1
@<TRIPOS>SUBSTRUCTURE
1   ZINC000049783788 1     RESIDUE    1   A     ZIN   1
