@<TRIPOS>MOLECULE
ZINC000002510358
30    32    1     0     0
SMALL
USER_CHARGES
@<TRIPOS>ATOM
1      O1     -0.4657    0.1305    0.2859 O.2      1 ZINC000002510358   -0.6100
2      C2     -0.3100    1.3336    0.2117 C.2      1 ZINC000002510358    0.6600
3      N3     -1.3111    2.2186    0.2796 N.pl3    1 ZINC000002510358   -0.7200
4      C4     -0.8633    3.4850    0.1703 C.2      1 ZINC000002510358    0.5100
5      O5     -1.5252    4.5004    0.1954 O.2      1 ZINC000002510358   -0.5500
6      C6      0.6401    3.3757    0.0105 C.3      1 ZINC000002510358    0.1500
7      C7      1.0757    3.9502   -1.3128 C.ar     1 ZINC000002510358   -0.0600
8      C8      0.6446    5.2063   -1.6965 C.ar     1 ZINC000002510358   -0.1000
9      C9      1.0442    5.7333   -2.9104 C.ar     1 ZINC000002510358   -0.1200
10     C10     1.8754    5.0045   -3.7403 C.ar     1 ZINC000002510358   -0.1300
11     C11     2.3073    3.7488   -3.3561 C.ar     1 ZINC000002510358   -0.1300
12     C12     1.9111    3.2235   -2.1404 C.ar     1 ZINC000002510358   -0.1100
13     C13     1.3459    4.0703    1.1465 C.ar     1 ZINC000002510358   -0.0600
14     C14     0.9939    5.3615    1.4926 C.ar     1 ZINC000002510358   -0.1000
15     C15     1.6413    5.9986    2.5346 C.ar     1 ZINC000002510358   -0.1200
16     C16     2.6404    5.3444    3.2308 C.ar     1 ZINC000002510358   -0.1300
17     C17     2.9918    4.0529    2.8852 C.ar     1 ZINC000002510358   -0.1300
18     C18     2.3415    3.4142    1.8460 C.ar     1 ZINC000002510358   -0.1100
19     N19     0.8887    1.9245    0.0580 N.am     1 ZINC000002510358   -0.7700
20     H20    -0.0048    5.7757   -1.0481 H        1 ZINC000002510358    0.1300
21     H21     0.7067    6.7144   -3.2105 H        1 ZINC000002510358    0.1200
22     H22     2.1871    5.4159   -4.6889 H        1 ZINC000002510358    0.1200
23     H23     2.9564    3.1792   -4.0047 H        1 ZINC000002510358    0.1200
24     H24     2.2486    2.2425   -1.8403 H        1 ZINC000002510358    0.1200
25     H25     0.2133    5.8726    0.9487 H        1 ZINC000002510358    0.1300
26     H26     1.3668    7.0076    2.8046 H        1 ZINC000002510358    0.1200
27     H27     3.1468    5.8425    4.0444 H        1 ZINC000002510358    0.1200
28     H28     3.7727    3.5419    3.4289 H        1 ZINC000002510358    0.1200
29     H29     2.6160    2.4052    1.5760 H        1 ZINC000002510358    0.1200
30     H30     1.7485    1.4811   -0.0133 H        1 ZINC000002510358    0.4000
@<TRIPOS>BOND
1     1     2     2
2     2     19    am
3     2     3     1
4     3     4     1
5     4     5     2
6     4     6     1
7     6     7     1
8     6     13    1
9     6     19    1
10    7     12    ar
11    7     8     ar
12    8     9     ar
13    8     20    1
14    9     10    ar
15    9     21    1
16    10    11    ar
17    10    22    1
18    11    12    ar
19    11    23    1
20    12    24    1
21    13    18    ar
22    13    14    ar
23    14    15    ar
24    14    25    1
25    15    16    ar
26    15    26    1
27    16    17    ar
28    16    27    1
29    17    18    ar
30    17    28    1
31    18    29    1
32    19    30    1
@<TRIPOS>SUBSTRUCTURE
1   ZINC000002510358 1     RESIDUE    1   A     ZIN   1
