@<TRIPOS>MOLECULE
ZINC000011679756
52    55    1     0     0
SMALL
USER_CHARGES
@<TRIPOS>ATOM
1      C1     -0.0184    1.5028    0.0103 C.3      1 ZINC000011679756   -0.0500
2      C2      0.0021   -0.0041    0.0020 C.2      1 ZINC000011679756    0.1400
3      C3     -1.1059   -0.8266    0.0027 C.2      1 ZINC000011679756   -0.2500
4      N4     -2.4091   -0.4355    0.0101 N.2      1 ZINC000011679756   -0.2100
5      N5     -2.7058    0.8199    0.0176 N.2      1 ZINC000011679756   -0.2600
6      C6     -4.0149    1.2128    0.0251 C.ar     1 ZINC000011679756   -0.0600
7      C7     -5.0339    0.2571    0.0305 C.ar     1 ZINC000011679756   -0.0800
8      C8     -6.3558    0.6536    0.0386 C.ar     1 ZINC000011679756   -0.2700
9      C9     -6.6836    1.9960    0.0408 C.ar     1 ZINC000011679756   -0.0500
10     C10    -5.6810    2.9639    0.0350 C.ar     1 ZINC000011679756   -0.2200
11     C11    -6.0377    4.4039    0.0375 C.ar     1 ZINC000011679756    0.0100
12     C12    -5.4425    5.2691    0.9551 C.ar     1 ZINC000011679756   -0.0900
13     C13    -5.7724    6.6109    0.9602 C.ar     1 ZINC000011679756   -0.1500
14     C14    -6.6924    7.1049    0.0582 C.ar     1 ZINC000011679756   -0.1100
15     C15    -7.2964    6.2484   -0.8669 C.ar     1 ZINC000011679756   -0.1500
16     C16    -8.2803    6.7763   -1.8316 C.2      1 ZINC000011679756    0.5300
17     O17    -8.5684    7.9648   -1.8226 O.co2    1 ZINC000011679756   -0.7100
18     O18    -8.8075    6.0255   -2.6401 O.co2    1 ZINC000011679756   -0.7000
19     C19    -6.9619    4.8941   -0.8792 C.ar     1 ZINC000011679756   -0.0900
20     C20    -4.3402    2.5753    0.0332 C.ar     1 ZINC000011679756    0.3200
21     O21    -3.3578    3.5120    0.0280 O.3      1 ZINC000011679756   -0.6900
22     C22    -0.6025   -2.2095   -0.0072 C.2      1 ZINC000011679756    0.5200
23     O23    -1.2713   -3.2262   -0.0102 O.2      1 ZINC000011679756   -0.5900
24     N24     0.7441   -2.1314   -0.0130 N.am     1 ZINC000011679756   -0.4000
25     C25     1.6245   -3.2180   -0.0229 C.ar     1 ZINC000011679756    0.2300
26     C26     1.1288   -4.5152   -0.0334 C.ar     1 ZINC000011679756   -0.1800
27     C27     2.0010   -5.5862   -0.0432 C.ar     1 ZINC000011679756   -0.0900
28     C28     3.3663   -5.3678   -0.0426 C.ar     1 ZINC000011679756   -0.1600
29     C29     4.3150   -6.5387   -0.0533 C.3      1 ZINC000011679756   -0.1000
30     C30     3.8633   -4.0772   -0.0326 C.ar     1 ZINC000011679756   -0.0700
31     C31     5.3521   -3.8439   -0.0329 C.3      1 ZINC000011679756   -0.1100
32     C32     2.9967   -3.0021   -0.0281 C.ar     1 ZINC000011679756   -0.1500
33     N33     1.1128   -0.7827   -0.0132 N.pl3    1 ZINC000011679756   -0.4300
34     H34     1.0042    1.8801    0.0026 H        1 ZINC000011679756    0.0400
35     H35    -0.5455    1.8639   -0.8728 H        1 ZINC000011679756    0.0800
36     H36    -0.5286    1.8543    0.9071 H        1 ZINC000011679756    0.0800
37     H37    -4.7866   -0.7942    0.0281 H        1 ZINC000011679756    0.1000
38     H38    -7.1391   -0.0900    0.0428 H        1 ZINC000011679756    0.0800
39     H39    -7.7210    2.2964    0.0468 H        1 ZINC000011679756    0.0900
40     H40    -4.7219    4.8892    1.6642 H        1 ZINC000011679756    0.1100
41     H41    -5.3084    7.2760    1.6735 H        1 ZINC000011679756    0.1000
42     H42    -6.9465    8.1545    0.0672 H        1 ZINC000011679756    0.1100
43     H43    -7.4248    4.2275   -1.5918 H        1 ZINC000011679756    0.1200
44     H44     0.0625   -4.6864   -0.0336 H        1 ZINC000011679756    0.1500
45     H45     1.6162   -6.5952   -0.0510 H        1 ZINC000011679756    0.1100
46     H46     4.5428   -6.8123   -1.0835 H        1 ZINC000011679756    0.0600
47     H47     5.2357   -6.2651    0.4621 H        1 ZINC000011679756    0.0600
48     H48     3.8526   -7.3856    0.4538 H        1 ZINC000011679756    0.0500
49     H49     5.7095   -3.7791   -1.0606 H        1 ZINC000011679756    0.0600
50     H50     5.5741   -2.9127    0.4884 H        1 ZINC000011679756    0.0600
51     H51     5.8496   -4.6711    0.4733 H        1 ZINC000011679756    0.0600
52     H52     3.3854   -1.9945   -0.0203 H        1 ZINC000011679756    0.1300
@<TRIPOS>BOND
1     1     2     1
2     1     34    1
3     1     35    1
4     1     36    1
5     2     33    1
6     2     3     2
7     3     4     1
8     3     22    1
9     4     5     2
10    5     6     1
11    6     20    ar
12    6     7     ar
13    7     8     ar
14    7     37    1
15    8     9     ar
16    8     38    1
17    9     10    ar
18    9     39    1
19    10    11    1
20    10    20    ar
21    11    19    ar
22    11    12    ar
23    12    13    ar
24    12    40    1
25    13    14    ar
26    13    41    1
27    14    15    ar
28    14    42    1
29    15    16    1
30    15    19    ar
31    16    17    ar
32    16    18    ar
33    19    43    1
34    20    21    1
35    22    23    2
36    22    24    am
37    24    25    1
38    24    33    1
39    25    32    ar
40    25    26    ar
41    26    27    ar
42    26    44    1
43    27    28    ar
44    27    45    1
45    28    29    1
46    28    30    ar
47    29    46    1
48    29    47    1
49    29    48    1
50    30    31    1
51    30    32    ar
52    31    49    1
53    31    50    1
54    31    51    1
55    32    52    1
@<TRIPOS>SUBSTRUCTURE
1   ZINC000011679756 1     RESIDUE    1   A     ZIN   1
