@<TRIPOS>MOLECULE
ZINC000005224188
10    9    0    0    0
SMALL
USER_CHARGES
NO_NAME
@<TRIPOS>ATOM
1 C1       -0.0225     1.8097     0.0120 C.3    1 <0>      -0.4900
2 S2        0.0021    -0.0041     0.0020 S.o    1 <0>       1.2500
3 C3        0.9059    -0.4083     1.5220 C.3    1 <0>      -0.4900
4 O4       -1.3276    -0.4963     0.0965 O.2    1 <0>      -0.8600
5 H5        1.0001     2.1870     0.0043 H      1 <0>       0.1100
6 H6       -0.5497     2.1708    -0.8711 H      1 <0>       0.1100
7 H7       -0.5327     2.1613     0.9088 H      1 <0>       0.0800
8 H8        0.3724    -0.0013     2.3810 H      1 <0>       0.0800
9 H9        0.9830    -1.4909     1.6219 H      1 <0>       0.1100
10 H10       1.9052     0.0245     1.4765 H      1 <0>       0.1100
@<TRIPOS>BOND
1    1    2 1
2    1    5 1
3    1    6 1
4    1    7 1
5    2    3 1
6    2    4 2
7    3    8 1
8    3    9 1
9    3   10 1
