@<TRIPOS>MOLECULE
ZINC000003782599
63    66    1     0     0
SMALL
USER_CHARGES
@<TRIPOS>ATOM
1      C1      0.6453    1.7792    0.4093 C.3      1 ZINC000003782599   -0.1600
2      C2      0.1369    0.3747    0.0782 C.3      1 ZINC000003782599    0.1700
3      C3      0.5165   -0.5846    1.2081 C.3      1 ZINC000003782599   -0.1600
4      C4     -1.3851    0.4060   -0.0744 C.3      1 ZINC000003782599   -0.1600
5      N5      0.7440   -0.0817   -1.1745 N.am     1 ZINC000003782599   -0.7300
6      C6      2.0838   -0.1884   -1.2744 C.2      1 ZINC000003782599    0.5300
7      O7      2.7869    0.0933   -0.3272 O.2      1 ZINC000003782599   -0.5300
8      C8      2.7084   -0.6579   -2.5630 C.3      1 ZINC000003782599   -0.1000
9      H9      2.8305   -1.7409   -2.5503 H        1 ZINC000003782599    0.1000
10     C10     1.8357   -0.2303   -3.7694 C.3      1 ZINC000003782599   -0.1200
11     C11     2.7500    0.6227   -4.6908 C.3      1 ZINC000003782599   -0.1100
12     C12     4.1564    0.1376   -4.3227 C.3      1 ZINC000003782599   -0.0800
13     H13     4.3488   -0.8401   -4.7645 H        1 ZINC000003782599    0.0800
14     C14     5.2905    1.0931   -4.6415 C.3      1 ZINC000003782599   -0.0800
15     H15     5.1263    2.0410   -4.1291 H        1 ZINC000003782599    0.0900
16     C16     5.3817    1.3324   -6.1481 C.3      1 ZINC000003782599   -0.1100
17     C17     6.5702    2.2480   -6.4578 C.3      1 ZINC000003782599   -0.1300
18     C18     7.8528    1.5861   -5.9581 C.3      1 ZINC000003782599    0.1500
19     H19     7.9719    0.6194   -6.4473 H        1 ZINC000003782599    0.0800
20     N20     9.0193    2.4180   -6.2461 N.am     1 ZINC000003782599   -0.7200
21     C21    10.1444    2.2580   -5.5148 C.2      1 ZINC000003782599    0.5500
22     O22    11.1123    2.9662   -5.7163 O.2      1 ZINC000003782599   -0.5400
23     C23    10.1888    1.2184   -4.4702 C.2      1 ZINC000003782599   -0.2000
24     C24     9.0430    0.7789   -3.9439 C.2      1 ZINC000003782599   -0.0800
25     C25     7.7569    1.3765   -4.4452 C.3      1 ZINC000003782599   -0.0500
26     C26     7.5040    2.7062   -3.7319 C.3      1 ZINC000003782599   -0.1500
27     C27     6.5884    0.4459   -4.1290 C.3      1 ZINC000003782599   -0.0600
28     H28     6.7304   -0.4944   -4.6617 H        1 ZINC000003782599    0.0700
29     C29     6.5294    0.1636   -2.6319 C.3      1 ZINC000003782599   -0.1200
30     C30     5.2997   -0.6866   -2.2704 C.3      1 ZINC000003782599   -0.1000
31     C31     4.0560    0.0234   -2.7761 C.3      1 ZINC000003782599   -0.0400
32     C32     4.0117    1.4478   -2.2192 C.3      1 ZINC000003782599   -0.1600
33     H33     1.7296    1.7569    0.5181 H        1 ZINC000003782599    0.0800
34     H34     0.3748    2.4626   -0.3956 H        1 ZINC000003782599    0.0500
35     H35     0.1936    2.1188    1.3414 H        1 ZINC000003782599    0.0600
36     H36     0.0648   -0.2451    2.1401 H        1 ZINC000003782599    0.0600
37     H37     0.1543   -1.5853    0.9722 H        1 ZINC000003782599    0.0500
38     H38     1.6008   -0.6070    1.3168 H        1 ZINC000003782599    0.0800
39     H39    -1.6556    1.0894   -0.8793 H        1 ZINC000003782599    0.0600
40     H40    -1.7473   -0.5946   -0.3103 H        1 ZINC000003782599    0.0600
41     H41    -1.8369    0.7455    0.8577 H        1 ZINC000003782599    0.0700
42     H42     0.1817   -0.3071   -1.9321 H        1 ZINC000003782599    0.4000
43     H43     1.4813   -1.1107   -4.3055 H        1 ZINC000003782599    0.0700
44     H44     0.9897    0.3655   -3.4267 H        1 ZINC000003782599    0.0700
45     H45     2.5350    0.4217   -5.7403 H        1 ZINC000003782599    0.0700
46     H46     2.6379    1.6841   -4.4695 H        1 ZINC000003782599    0.0700
47     H47     5.5162    0.3789   -6.6589 H        1 ZINC000003782599    0.0700
48     H48     4.4620    1.8022   -6.4966 H        1 ZINC000003782599    0.0700
49     H49     6.6374    2.4068   -7.5341 H        1 ZINC000003782599    0.0700
50     H50     6.4339    3.2052   -5.9545 H        1 ZINC000003782599    0.0800
51     H51     8.9864    3.0786   -6.9556 H        1 ZINC000003782599    0.4000
52     H52    11.1344    0.8179   -4.1359 H        1 ZINC000003782599    0.1400
53     H53     9.0457    0.0243   -3.1712 H        1 ZINC000003782599    0.1400
54     H54     8.3277    3.3903   -3.9359 H        1 ZINC000003782599    0.0500
55     H55     6.5724    3.1412   -4.0936 H        1 ZINC000003782599    0.0700
56     H56     7.4319    2.5344   -2.6579 H        1 ZINC000003782599    0.0700
57     H57     7.4320   -0.3696   -2.3336 H        1 ZINC000003782599    0.0600
58     H58     6.4803    1.1094   -2.0922 H        1 ZINC000003782599    0.0700
59     H59     5.3582   -1.6540   -2.7694 H        1 ZINC000003782599    0.0600
60     H60     5.2510   -0.8278   -1.1907 H        1 ZINC000003782599    0.0700
61     H61     4.8935    1.9955   -2.5517 H        1 ZINC000003782599    0.0600
62     H62     3.1143    1.9509   -2.5792 H        1 ZINC000003782599    0.0500
63     H63     3.9958    1.4117   -1.1299 H        1 ZINC000003782599    0.0800
@<TRIPOS>BOND
1     1     2     1
2     1     33    1
3     1     34    1
4     1     35    1
5     2     3     1
6     2     4     1
7     2     5     1
8     3     36    1
9     3     37    1
10    3     38    1
11    4     39    1
12    4     40    1
13    4     41    1
14    5     6     am
15    5     42    1
16    6     7     2
17    6     8     1
18    8     9     1
19    8     31    1
20    8     10    1
21    10    11    1
22    10    43    1
23    10    44    1
24    11    12    1
25    11    45    1
26    11    46    1
27    12    13    1
28    12    31    1
29    12    14    1
30    14    15    1
31    14    27    1
32    14    16    1
33    16    17    1
34    16    47    1
35    16    48    1
36    17    18    1
37    17    49    1
38    17    50    1
39    18    19    1
40    18    25    1
41    18    20    1
42    20    21    am
43    20    51    1
44    21    22    2
45    21    23    1
46    23    24    2
47    23    52    1
48    24    25    1
49    24    53    1
50    25    26    1
51    25    27    1
52    26    54    1
53    26    55    1
54    26    56    1
55    27    28    1
56    27    29    1
57    29    30    1
58    29    57    1
59    29    58    1
60    30    31    1
61    30    59    1
62    30    60    1
63    31    32    1
64    32    61    1
65    32    62    1
66    32    63    1
@<TRIPOS>SUBSTRUCTURE
1   ZINC000003782599 1     RESIDUE    1   A     ZIN   1
