@<TRIPOS>MOLECULE
ZINC000003833846
85    88    1     0     0
SMALL
USER_CHARGES
@<TRIPOS>ATOM
1      C1     -0.3367    1.5183    0.0878 C.3      1 ZINC000003833846   -0.1300
2      C2     -0.2054    0.0175    0.0489 C.ar     1 ZINC000003833846   -0.0400
3      C3     -0.2966   -0.6565   -1.1571 C.ar     1 ZINC000003833846    0.0900
4      O4     -0.5053    0.0358   -2.3080 O.3      1 ZINC000003833846   -0.4900
5      C5     -0.1745   -2.0392   -1.1914 C.ar     1 ZINC000003833846   -0.1100
6      C6      0.0378   -2.7485   -0.0240 C.ar     1 ZINC000003833846   -0.1200
7      C7      0.1299   -2.0868    1.1835 C.ar     1 ZINC000003833846   -0.0900
8      C8      0.0142   -0.6966    1.2272 C.ar     1 ZINC000003833846   -0.1300
9      C9      0.1127    0.0159    2.5191 C.2      1 ZINC000003833846    0.5600
10     O10    -0.0627    1.2178    2.5652 O.2      1 ZINC000003833846   -0.5000
11     N11     0.3970   -0.6674    3.6455 N.am     1 ZINC000003833846   -0.7200
12     C12     0.4946    0.0386    4.9255 C.3      1 ZINC000003833846    0.1400
13     H13     0.9218    1.0281    4.7630 H        1 ZINC000003833846    0.1100
14     C14    -0.9004    0.1795    5.5379 C.3      1 ZINC000003833846   -0.1400
15     S15    -1.9643    1.1194    4.4086 S.3      1 ZINC000003833846   -0.0400
16     C16    -3.5011    1.1780    5.2686 C.ar     1 ZINC000003833846   -0.1100
17     C17    -3.6252    0.5758    6.5150 C.ar     1 ZINC000003833846   -0.1400
18     C18    -4.8311    0.6237    7.1860 C.ar     1 ZINC000003833846   -0.1000
19     C19    -5.9146    1.2699    6.6192 C.ar     1 ZINC000003833846   -0.1300
20     C20    -5.7949    1.8699    5.3789 C.ar     1 ZINC000003833846   -0.1000
21     C21    -4.5904    1.8314    4.7048 C.ar     1 ZINC000003833846   -0.1000
22     C22     1.3920   -0.7542    5.8779 C.3      1 ZINC000003833846    0.0600
23     H23     2.3577   -0.9311    5.4044 H        1 ZINC000003833846    0.1200
24     O24     0.7745   -2.0062    6.1829 O.3      1 ZINC000003833846   -0.5500
25     C25     1.5951    0.0421    7.1685 C.3      1 ZINC000003833846    0.0200
26     N26     2.5762   -0.6453    8.0188 N.3      1 ZINC000003833846   -0.5000
27     C27     3.7730   -1.0119    7.2507 C.3      1 ZINC000003833846    0.0500
28     C28     4.8287   -1.5882    8.1993 C.3      1 ZINC000003833846   -0.0800
29     H29     5.7158   -1.8694    7.6318 H        1 ZINC000003833846    0.0700
30     C30     5.1993   -0.5294    9.2402 C.3      1 ZINC000003833846   -0.1100
31     C31     6.2329   -1.1038   10.2106 C.3      1 ZINC000003833846   -0.1200
32     C32     5.6409   -2.3234   10.9204 C.3      1 ZINC000003833846   -0.1200
33     C33     5.2745   -3.3860    9.8825 C.3      1 ZINC000003833846   -0.1100
34     C34     4.2518   -2.8234    8.8957 C.3      1 ZINC000003833846   -0.0800
35     H35     4.0058   -3.5846    8.1553 H        1 ZINC000003833846    0.0700
36     C36     2.9818   -2.4129    9.6447 C.3      1 ZINC000003833846   -0.1100
37     C37     1.9790   -1.8190    8.6681 C.3      1 ZINC000003833846    0.0600
38     H38     1.7123   -2.5673    7.9217 H        1 ZINC000003833846    0.0900
39     C39     0.7419   -1.3932    9.4160 C.2      1 ZINC000003833846    0.5200
40     O40     0.5811   -0.2271    9.7080 O.2      1 ZINC000003833846   -0.5100
41     N41    -0.1858   -2.3082    9.7603 N.am     1 ZINC000003833846   -0.7300
42     C42    -1.3884   -1.8943   10.4874 C.3      1 ZINC000003833846    0.1700
43     C43    -2.1658   -0.8769    9.6499 C.3      1 ZINC000003833846   -0.1600
44     C44    -2.2699   -3.1163   10.7527 C.3      1 ZINC000003833846   -0.1600
45     C45    -0.9855   -1.2573   11.8189 C.3      1 ZINC000003833846   -0.1600
46     H46     0.6554    1.9696    0.0989 H        1 ZINC000003833846    0.0700
47     H47    -0.8808    1.8584   -0.7933 H        1 ZINC000003833846    0.0700
48     H48    -0.8797    1.8123    0.9861 H        1 ZINC000003833846    0.1100
49     H49     0.3071    0.3156   -2.7515 H        1 ZINC000003833846    0.3900
50     H50    -0.2461   -2.5624   -2.1335 H        1 ZINC000003833846    0.1300
51     H51     0.1316   -3.8239   -0.0570 H        1 ZINC000003833846    0.1300
52     H52     0.2959   -2.6440    2.0937 H        1 ZINC000003833846    0.1300
53     H53     0.5370   -1.6265    3.6087 H        1 ZINC000003833846    0.4000
54     H54    -1.3275   -0.8101    5.7004 H        1 ZINC000003833846    0.0900
55     H55    -0.8277    0.7047    6.4902 H        1 ZINC000003833846    0.1000
56     H56    -2.7797    0.0707    6.9580 H        1 ZINC000003833846    0.1200
57     H57    -4.9284    0.1557    8.1544 H        1 ZINC000003833846    0.1200
58     H58    -6.8565    1.3058    7.1463 H        1 ZINC000003833846    0.1200
59     H59    -6.6431    2.3734    4.9392 H        1 ZINC000003833846    0.1300
60     H60    -4.4975    2.3004    3.7364 H        1 ZINC000003833846    0.1200
61     H61    -0.0907   -1.9251    6.6072 H        1 ZINC000003833846    0.3700
62     H62     1.9604    1.0400    6.9261 H        1 ZINC000003833846    0.0900
63     H63     0.6465    0.1215    7.6996 H        1 ZINC000003833846    0.1000
64     H64     3.5099   -1.7593    6.5022 H        1 ZINC000003833846    0.0400
65     H65     4.1730   -0.1267    6.7562 H        1 ZINC000003833846    0.0800
66     H66     5.6184    0.3424    8.7378 H        1 ZINC000003833846    0.0600
67     H67     4.3069   -0.2354    9.7926 H        1 ZINC000003833846    0.0800
68     H68     7.1240   -1.4017    9.6581 H        1 ZINC000003833846    0.0600
69     H69     6.4985   -0.3471   10.9487 H        1 ZINC000003833846    0.0600
70     H70     6.3749   -2.7316   11.6152 H        1 ZINC000003833846    0.0600
71     H71     4.7466   -2.0267   11.4684 H        1 ZINC000003833846    0.0600
72     H72     6.1697   -3.6834    9.3362 H        1 ZINC000003833846    0.0600
73     H73     4.8522   -4.2552   10.3867 H        1 ZINC000003833846    0.0600
74     H74     2.5404   -3.2887   10.1203 H        1 ZINC000003833846    0.0700
75     H75     3.2304   -1.6716   10.4041 H        1 ZINC000003833846    0.0800
76     H76    -0.0572   -3.2409    9.5268 H        1 ZINC000003833846    0.4000
77     H77    -2.4529   -1.3306    8.7013 H        1 ZINC000003833846    0.0500
78     H78    -3.0606   -0.5689   10.1908 H        1 ZINC000003833846    0.0600
79     H79    -1.5378   -0.0062    9.4608 H        1 ZINC000003833846    0.0800
80     H80    -1.7161   -3.8412   11.3494 H        1 ZINC000003833846    0.0600
81     H81    -3.1647   -2.8083   11.2937 H        1 ZINC000003833846    0.0700
82     H82    -2.5570   -3.5701    9.8042 H        1 ZINC000003833846    0.0600
83     H83    -0.3575   -0.3867   11.6298 H        1 ZINC000003833846    0.0800
84     H84    -1.8803   -0.9493   12.3598 H        1 ZINC000003833846    0.0600
85     H85    -0.4317   -1.9821   12.4155 H        1 ZINC000003833846    0.0500
@<TRIPOS>BOND
1     1     2     1
2     1     46    1
3     1     47    1
4     1     48    1
5     2     8     ar
6     2     3     ar
7     3     4     1
8     3     5     ar
9     4     49    1
10    5     6     ar
11    5     50    1
12    6     7     ar
13    6     51    1
14    7     8     ar
15    7     52    1
16    8     9     1
17    9     10    2
18    9     11    am
19    11    12    1
20    11    53    1
21    12    13    1
22    12    14    1
23    12    22    1
24    14    15    1
25    14    54    1
26    14    55    1
27    15    16    1
28    16    21    ar
29    16    17    ar
30    17    18    ar
31    17    56    1
32    18    19    ar
33    18    57    1
34    19    20    ar
35    19    58    1
36    20    21    ar
37    20    59    1
38    21    60    1
39    22    23    1
40    22    24    1
41    22    25    1
42    24    61    1
43    25    26    1
44    25    62    1
45    25    63    1
46    26    37    1
47    26    27    1
48    27    28    1
49    27    64    1
50    27    65    1
51    28    29    1
52    28    34    1
53    28    30    1
54    30    31    1
55    30    66    1
56    30    67    1
57    31    32    1
58    31    68    1
59    31    69    1
60    32    33    1
61    32    70    1
62    32    71    1
63    33    34    1
64    33    72    1
65    33    73    1
66    34    35    1
67    34    36    1
68    36    37    1
69    36    74    1
70    36    75    1
71    37    38    1
72    37    39    1
73    39    40    2
74    39    41    am
75    41    42    1
76    41    76    1
77    42    43    1
78    42    44    1
79    42    45    1
80    43    77    1
81    43    78    1
82    43    79    1
83    44    80    1
84    44    81    1
85    44    82    1
86    45    83    1
87    45    84    1
88    45    85    1
@<TRIPOS>SUBSTRUCTURE
1   ZINC000003833846 1     RESIDUE    1   A     ZIN   1
