@<TRIPOS>MOLECULE
ZINC000009302239
27    28    1     0     0
SMALL
USER_CHARGES
@<TRIPOS>ATOM
1      N1     -0.0162    1.3436    0.0094 N.am     1 ZINC000009302239   -0.8500
2      C2      0.0021   -0.0041    0.0020 C.2      1 ZINC000009302239    0.5300
3      O3      1.0605   -0.5961   -0.0113 O.2      1 ZINC000009302239   -0.5200
4      C4     -1.2926   -0.7753    0.0102 C.3      1 ZINC000009302239    0.1500
5      H5     -1.9040   -0.5396   -0.8609 H        1 ZINC000009302239    0.1300
6      C6     -2.0796   -0.5736    1.3432 C.3      1 ZINC000009302239   -0.1300
7      C7     -1.4591   -1.3965    2.4629 C.3      1 ZINC000009302239   -0.1200
8      C8     -1.0937   -2.8495    2.1594 C.3      1 ZINC000009302239    0.1100
9      H9     -0.7645   -3.4040    3.0381 H        1 ZINC000009302239    0.1200
10     C10    -0.0099   -2.7681    1.0113 C.3      1 ZINC000009302239    0.0900
11     N11    -1.0673   -2.2149    0.1432 N.am     1 ZINC000009302239   -0.6500
12     C12    -1.9857   -3.1770    0.0673 C.2      1 ZINC000009302239    0.7400
13     O13    -2.5161   -3.6435   -0.9224 O.2      1 ZINC000009302239   -0.4700
14     N14    -2.1947   -3.5194    1.4102 N.am     1 ZINC000009302239   -0.4700
15     O15    -3.2325   -4.3332    1.9257 O.3      1 ZINC000009302239   -0.5500
16     S16    -2.8850   -5.8136    1.9886 S.o2     1 ZINC000009302239    2.7400
17     O17    -4.1357   -6.5301    2.1843 O.co2    1 ZINC000009302239   -1.0600
18     O18    -2.2551   -6.1508    0.7214 O.co2    1 ZINC000009302239   -1.0700
19     O19    -1.9767   -5.9839    3.1120 O.co2    1 ZINC000009302239   -1.0900
20     H20     0.8172    1.8399    0.0041 H        1 ZINC000009302239    0.4100
21     H21    -0.8627    1.8171    0.0160 H        1 ZINC000009302239    0.4000
22     H22    -2.0570    0.4811    1.6176 H        1 ZINC000009302239    0.0700
23     H23    -3.1144   -0.8846    1.1999 H        1 ZINC000009302239    0.0800
24     H24    -0.5526   -0.8861    2.7883 H        1 ZINC000009302239    0.0700
25     H25    -2.1553   -1.3964    3.3016 H        1 ZINC000009302239    0.0800
26     H26     0.7946   -2.0632    1.2210 H        1 ZINC000009302239    0.1400
27     H27     0.3540   -3.7427    0.6859 H        1 ZINC000009302239    0.1100
@<TRIPOS>BOND
1     1     2     am
2     1     20    1
3     1     21    1
4     2     3     2
5     2     4     1
6     4     5     1
7     4     11    1
8     4     6     1
9     6     7     1
10    6     22    1
11    6     23    1
12    7     8     1
13    7     24    1
14    7     25    1
15    8     9     1
16    8     14    1
17    8     10    1
18    10    11    1
19    10    26    1
20    10    27    1
21    11    12    am
22    12    13    2
23    12    14    am
24    14    15    1
25    15    16    1
26    16    17    ar
27    16    18    ar
28    16    19    ar
@<TRIPOS>SUBSTRUCTURE
1   ZINC000009302239 1     RESIDUE    1   A     ZIN   1
