@<TRIPOS>MOLECULE
ZINC000004258316
26   28    0    0    0
SMALL
USER_CHARGES
NO_NAME
@<TRIPOS>ATOM
1 C1       -0.0178     1.4608     0.0101 C.3    1 <0>       0.0600
2 N2        0.0021    -0.0041     0.0020 N.pl3  1 <0>      -0.3800
3 C3        0.0084    -0.7952    -1.0871 C.2    1 <0>       0.2200
4 N4        0.0272    -2.0755    -0.7478 N.2    1 <0>      -0.4200
5 C5        0.0342    -2.2013     0.5617 C.2    1 <0>       0.1700
6 N6        0.0549    -3.4675     1.3342 N.pl3  1 <0>       0.0100
7 O7        0.0680    -4.6236     0.7035 O.2    1 <0>      -0.1400
8 O8        0.0603    -3.4356     2.6508 O.2    1 <0>      -0.1400
9 C9        0.0238    -0.8272     1.1096 C.2    1 <0>      -0.0500
10 S10       0.0276    -0.3605     2.7567 S.3    1 <0>       0.2500
11 C11      -1.7068    -0.2930     3.0597 C.ar   1 <0>       0.1800
12 C12      -2.2075     0.0680     4.3306 C.ar   1 <0>      -0.0200
13 N13      -1.6552     0.4121     5.5013 N.2    1 <0>      -0.4700
14 C14      -2.5943     0.6541     6.3777 C.2    1 <0>       0.2900
15 N15      -3.8179     0.4769     5.8123 N.pl3  1 <0>      -0.5800
16 C16      -3.6128     0.1023     4.5057 C.ar   1 <0>       0.2900
17 N17      -4.3936    -0.2019     3.4848 N.ar   1 <0>      -0.5100
18 C18      -3.8780    -0.5345     2.3137 C.ar   1 <0>       0.3300
19 N19      -2.5825    -0.5760     2.0933 N.ar   1 <0>      -0.5200
20 H20       1.0048     1.8381     0.0023 H      1 <0>       0.1100
21 H21      -0.5450     1.8219    -0.8730 H      1 <0>       0.1100
22 H22      -0.5280     1.8123     0.9069 H      1 <0>       0.1000
23 H23      -0.0012    -0.4333    -2.1046 H      1 <0>       0.2400
24 H24      -2.4232     0.9512     7.4019 H      1 <0>       0.2400
25 H25      -4.6760     0.5927     6.2496 H      1 <0>       0.4400
26 H26      -4.5490    -0.7767     1.5028 H      1 <0>       0.2100
@<TRIPOS>BOND
1    1    2 1
2    1   20 1
3    1   21 1
4    1   22 1
5    2    9 1
6    2    3 1
7    3    4 2
8    3   23 1
9    4    5 1
10    5    6 1
11    5    9 2
12    6    7 2
13    6    8 2
14    9   10 1
15   10   11 1
16   11   19 ar
17   11   12 ar
18   12   16 ar
19   12   13 1
20   13   14 2
21   14   15 1
22   14   24 1
23   15   16 1
24   15   25 1
25   16   17 ar
26   17   18 ar
27   18   19 ar
28   18   26 1
