@<TRIPOS>MOLECULE
ZINC000253498282
51   54    0    0    0
SMALL
USER_CHARGES
NO_NAME
@<TRIPOS>ATOM
1 C1       -0.1877    -0.7984    -0.8029 C.1    1 <0>      -0.1800
2 C2       -0.1699     0.3453    -0.5385 C.1    1 <0>      -0.2000
3 C3       -0.1476     1.7749    -0.2080 C.3    1 <0>       0.2500
4 O4       -0.7515     1.9596     1.0857 O.3    1 <0>      -0.5500
5 C5       -0.9574     2.5736    -1.2499 C.3    1 <0>      -0.1500
6 C6       -0.1549     3.8642    -1.5041 C.3    1 <0>      -0.1200
7 C7        1.3250     3.4615    -1.2673 C.3    1 <0>      -0.0700
8 H8        1.8971     4.3347    -0.8827 H      1 <0>       0.0900
9 C9        1.9130     3.0139    -2.5993 C.3    1 <0>      -0.0700
10 H10       2.1797     3.9141    -3.1776 H      1 <0>       0.0700
11 C11       0.9024     2.2127    -3.4148 C.3    1 <0>      -0.1200
12 C12       1.4854     1.9052    -4.8007 C.3    1 <0>      -0.1000
13 C13       2.8114     1.1913    -4.6058 C.2    1 <0>      -0.0200
14 C14       2.9947     0.0238    -5.2179 C.2    1 <0>      -0.2500
15 C15       4.2725    -0.6792    -5.0437 C.2    1 <0>       0.3900
16 O16       4.3637    -1.8824    -5.1457 O.2    1 <0>      -0.4600
17 C17       5.4689     0.1969    -4.7254 C.3    1 <0>      -0.1700
18 C18       5.1020     1.0504    -3.5117 C.3    1 <0>      -0.1100
19 C19       3.8321     1.8469    -3.7258 C.3    1 <0>      -0.0600
20 H20       4.1168     2.7885    -4.2122 H      1 <0>       0.0900
21 C21       3.1932     2.2083    -2.3847 C.3    1 <0>      -0.0700
22 H22       3.8967     2.8028    -1.7967 H      1 <0>       0.0800
23 C23       2.8231     0.9459    -1.6018 C.3    1 <0>      -0.1200
24 C24       2.3876     1.3798    -0.2064 C.3    1 <0>      -0.1100
25 C25       1.2577     2.3744    -0.1915 C.3    1 <0>      -0.0200
26 C26       1.3819     3.1168     1.1697 C.3    1 <0>      -0.1100
27 C27       2.7655     3.7614     1.2746 C.3    1 <0>      -0.1600
28 H28      -0.2036    -1.8213    -1.0394 H      1 <0>       0.2200
29 H29      -1.6668     1.6525     1.1400 H      1 <0>       0.3700
30 H30      -1.0711     1.9972    -2.1646 H      1 <0>       0.0800
31 H31      -1.9416     2.8195    -0.8441 H      1 <0>       0.0700
32 H32      -0.3064     4.2244    -2.5215 H      1 <0>       0.0800
33 H33      -0.4567     4.6439    -0.7978 H      1 <0>       0.0700
34 H34       0.6638     1.2767    -2.9184 H      1 <0>       0.0700
35 H35      -0.0127     2.7931    -3.5536 H      1 <0>       0.0800
36 H36       0.7996     1.2637    -5.3500 H      1 <0>       0.0800
37 H37       1.6439     2.8354    -5.3432 H      1 <0>       0.0800
38 H38       2.2194    -0.4025    -5.8333 H      1 <0>       0.1300
39 H39       6.3315    -0.4267    -4.4902 H      1 <0>       0.0900
40 H40       5.6969     0.8377    -5.5765 H      1 <0>       0.1000
41 H41       4.9935     0.4011    -2.6456 H      1 <0>       0.0700
42 H42       5.9243     1.7456    -3.3179 H      1 <0>       0.0800
43 H43       2.0296     0.4065    -2.1104 H      1 <0>       0.0700
44 H44       3.6932     0.2907    -1.5155 H      1 <0>       0.0600
45 H45       2.1606     0.5119     0.4053 H      1 <0>       0.0600
46 H46       3.2595     1.8673     0.2688 H      1 <0>       0.0700
47 H47       0.6154     3.8892     1.2335 H      1 <0>       0.0700
48 H48       1.2496     2.4054     1.9849 H      1 <0>       0.0700
49 H49       2.7973     4.4133     2.1476 H      1 <0>       0.0500
50 H50       3.5222     2.9833     1.3745 H      1 <0>       0.0600
51 H51       2.9626     4.3469     0.3766 H      1 <0>       0.0600
@<TRIPOS>BOND
1    1    2 3
2    1   28 1
3    2    3 1
4    3   25 1
5    3    4 1
6    3    5 1
7    4   29 1
8    5    6 1
9    5   30 1
10    5   31 1
11    6    7 1
12    6   32 1
13    6   33 1
14    7    8 1
15    7   25 1
16    7    9 1
17    9   10 1
18    9   21 1
19    9   11 1
20   11   12 1
21   11   34 1
22   11   35 1
23   12   13 1
24   12   36 1
25   12   37 1
26   13   19 1
27   13   14 2
28   14   15 1
29   14   38 1
30   15   16 2
31   15   17 1
32   17   18 1
33   17   39 1
34   17   40 1
35   18   19 1
36   18   41 1
37   18   42 1
38   19   20 1
39   19   21 1
40   21   22 1
41   21   23 1
42   23   24 1
43   23   43 1
44   23   44 1
45   24   25 1
46   24   45 1
47   24   46 1
48   25   26 1
49   26   27 1
50   26   47 1
51   26   48 1
52   27   49 1
53   27   50 1
54   27   51 1
