@<TRIPOS>MOLECULE
ZINC000000020220
41    44    1     0     0
SMALL
USER_CHARGES
@<TRIPOS>ATOM
1      O1      0.0022   -0.0041    0.0233 O.co2    1 ZINC000000020220   -0.7000
2      C2     -0.0144    1.2199    0.0240 C.2      1 ZINC000000020220    0.5400
3      O3      1.0372    1.8464    0.0177 O.co2    1 ZINC000000020220   -0.6600
4      C4     -1.2942    1.9358    0.0262 C.2      1 ZINC000000020220   -0.2900
5      C5     -2.4881    1.2402    0.0334 C.2      1 ZINC000000020220    0.1500
6      N6     -3.6740    1.8604    0.0356 N.pl3    1 ZINC000000020220   -0.4700
7      C7     -4.8915    1.0457    0.0428 C.3      1 ZINC000000020220    0.0400
8      C8     -4.7474   -0.4429   -0.2801 C.3      1 ZINC000000020220   -0.1800
9      C9     -5.0380    0.0041    1.1540 C.3      1 ZINC000000020220   -0.1800
10     C10    -3.7987    3.2342    0.0319 C.ar     1 ZINC000000020220    0.2100
11     C11    -5.0552    3.8277    0.0354 C.ar     1 ZINC000000020220   -0.1800
12     C12    -5.1648    5.2091    0.0320 C.ar     1 ZINC000000020220    0.1100
13     N13    -6.4249    5.8021    0.0355 N.3      1 ZINC000000020220   -0.5000
14     C14    -7.1644    5.4748   -1.1916 C.3      1 ZINC000000020220    0.0600
15     C15    -8.5080    6.2076   -1.1851 C.3      1 ZINC000000020220    0.0600
16     N16    -9.2717    5.8144    0.0074 N.3      1 ZINC000000020220   -0.6900
17     C17    -8.5322    6.1418    1.2344 C.3      1 ZINC000000020220    0.0600
18     C18    -7.1886    5.4089    1.2279 C.3      1 ZINC000000020220    0.0600
19     C19    -4.0212    6.0118    0.0255 C.ar     1 ZINC000000020220    0.0800
20     F20    -4.1441    7.3572    0.0231 F        1 ZINC000000020220   -0.1300
21     C21    -2.7793    5.4424    0.0220 C.ar     1 ZINC000000020220   -0.0600
22     C22    -2.6533    4.0513    0.0249 C.ar     1 ZINC000000020220   -0.1700
23     C23    -1.3284    3.4086    0.0270 C.2      1 ZINC000000020220    0.4200
24     O24    -0.3032    4.0675    0.0259 O.2      1 ZINC000000020220   -0.4500
25     H25    -2.4634    0.1604    0.0369 H        1 ZINC000000020220    0.1700
26     H26    -5.7963    1.5494   -0.2972 H        1 ZINC000000020220    0.1400
27     H27    -5.5574   -0.9187   -0.8329 H        1 ZINC000000020220    0.1100
28     H28    -3.7466   -0.8160   -0.4979 H        1 ZINC000000020220    0.1100
29     H29    -4.2285   -0.0749    1.8796 H        1 ZINC000000020220    0.1100
30     H30    -6.0392   -0.1776    1.5447 H        1 ZINC000000020220    0.1100
31     H31    -5.9439    3.2140    0.0404 H        1 ZINC000000020220    0.1400
32     H32    -6.5842    5.7868   -2.0600 H        1 ZINC000000020220    0.0800
33     H33    -7.3368    4.3994   -1.2363 H        1 ZINC000000020220    0.0500
34     H34    -8.3353    7.2837   -1.1678 H        1 ZINC000000020220    0.0400
35     H35    -9.0706    5.9436   -2.0806 H        1 ZINC000000020220    0.0800
36     H36   -10.1847    6.2440    0.0099 H        1 ZINC000000020220    0.3400
37     H37    -8.3597    7.2171    1.2791 H        1 ZINC000000020220    0.0400
38     H38    -9.1124    5.8297    2.1028 H        1 ZINC000000020220    0.0800
39     H39    -7.3613    4.3328    1.2106 H        1 ZINC000000020220    0.0500
40     H40    -6.6260    5.6729    2.1234 H        1 ZINC000000020220    0.0800
41     H41    -1.8976    6.0661    0.0173 H        1 ZINC000000020220    0.1500
@<TRIPOS>BOND
1     1     2     ar
2     2     3     ar
3     2     4     1
4     4     23    1
5     4     5     2
6     5     6     1
7     5     25    1
8     6     7     1
9     6     10    1
10    7     9     1
11    7     8     1
12    7     26    1
13    8     9     1
14    8     27    1
15    8     28    1
16    9     29    1
17    9     30    1
18    10    22    ar
19    10    11    ar
20    11    12    ar
21    11    31    1
22    12    13    1
23    12    19    ar
24    13    18    1
25    13    14    1
26    14    15    1
27    14    32    1
28    14    33    1
29    15    16    1
30    15    34    1
31    15    35    1
32    16    17    1
33    16    36    1
34    17    18    1
35    17    37    1
36    17    38    1
37    18    39    1
38    18    40    1
39    19    20    1
40    19    21    ar
41    21    22    ar
42    21    41    1
43    22    23    1
44    23    24    2
@<TRIPOS>SUBSTRUCTURE
1   ZINC000000020220 1     RESIDUE    1   A     ZIN   1
