@<TRIPOS>MOLECULE
ZINC000001530701
33    32    1     0     0
SMALL
USER_CHARGES
@<TRIPOS>ATOM
1      C1     -0.0187    1.5258    0.0104 C.3      1 ZINC000001530701   -0.1500
2      C2      0.0021   -0.0041    0.0020 C.3      1 ZINC000001530701   -0.1300
3      C3      0.7421   -0.5109    1.2415 C.3      1 ZINC000001530701   -0.1100
4      C4      0.7628   -2.0407    1.2331 C.3      1 ZINC000001530701   -0.0600
5      C5      1.5028   -2.5476    2.4727 C.3      1 ZINC000001530701   -0.1400
6      C6     -0.6726   -2.5703    1.2440 C.3      1 ZINC000001530701    0.1000
7      O7     -1.3522   -2.1021    2.4386 O.3      1 ZINC000001530701   -0.3600
8      C8     -2.6335   -2.4821    2.6016 C.2      1 ZINC000001530701    0.6500
9      N9     -3.3220   -2.0820    3.6890 N.am     1 ZINC000001530701   -0.8300
10     O10    -3.1691   -3.1859    1.7683 O.2      1 ZINC000001530701   -0.5700
11     C11     1.4790   -2.5342   -0.0257 C.3      1 ZINC000001530701    0.1000
12     O12     2.8412   -2.0316   -0.0360 O.3      1 ZINC000001530701   -0.3600
13     C13     3.6123   -2.3772   -1.0842 C.2      1 ZINC000001530701    0.6500
14     N14     4.8866   -1.9440   -1.1551 N.am     1 ZINC000001530701   -0.8300
15     O15     3.1593   -3.0795   -1.9662 O.2      1 ZINC000001530701   -0.5700
16     H16     1.0039    1.9031    0.0027 H        1 ZINC000001530701    0.0500
17     H17    -0.5459    1.8868   -0.8726 H        1 ZINC000001530701    0.0500
18     H18    -0.5289    1.8773    0.9072 H        1 ZINC000001530701    0.0500
19     H19    -1.0205   -0.3814    0.0098 H        1 ZINC000001530701    0.0600
20     H20     0.5123   -0.3556   -0.8948 H        1 ZINC000001530701    0.0600
21     H21     1.7647   -0.1336    1.2338 H        1 ZINC000001530701    0.0700
22     H22     0.2319   -0.1594    2.1383 H        1 ZINC000001530701    0.0700
23     H23     0.9926   -2.1961    3.3695 H        1 ZINC000001530701    0.0700
24     H24     1.5176   -3.6375    2.4667 H        1 ZINC000001530701    0.0600
25     H25     2.5254   -2.1703    2.4649 H        1 ZINC000001530701    0.0700
26     H26    -1.1998   -2.2092    0.3609 H        1 ZINC000001530701    0.0800
27     H27    -0.6578   -3.6602    1.2380 H        1 ZINC000001530701    0.0800
28     H28    -2.8944   -1.5202    4.3541 H        1 ZINC000001530701    0.4100
29     H29    -4.2451   -2.3558    3.8064 H        1 ZINC000001530701    0.4300
30     H30     1.4937   -3.6240   -0.0317 H        1 ZINC000001530701    0.0800
31     H31     0.9518   -2.1731   -0.9087 H        1 ZINC000001530701    0.0800
32     H32     5.2482   -1.3834   -0.4510 H        1 ZINC000001530701    0.4100
33     H33     5.4421   -2.1930   -1.9103 H        1 ZINC000001530701    0.4300
@<TRIPOS>BOND
1     1     2     1
2     1     16    1
3     1     17    1
4     1     18    1
5     2     3     1
6     2     19    1
7     2     20    1
8     3     4     1
9     3     21    1
10    3     22    1
11    4     5     1
12    4     6     1
13    4     11    1
14    5     23    1
15    5     24    1
16    5     25    1
17    6     7     1
18    6     26    1
19    6     27    1
20    7     8     1
21    8     9     am
22    8     10    2
23    9     28    1
24    9     29    1
25    11    12    1
26    11    30    1
27    11    31    1
28    12    13    1
29    13    14    am
30    13    15    2
31    14    32    1
32    14    33    1
@<TRIPOS>SUBSTRUCTURE
1   ZINC000001530701 1     RESIDUE    1   A     ZIN   1
