@<TRIPOS>MOLECULE
ZINC000001530950
42    41    1     0     0
SMALL
USER_CHARGES
@<TRIPOS>ATOM
1      C1     -0.0187    1.5258    0.0104 C.3      1 ZINC000001530950   -0.1500
2      C2      0.0021   -0.0041    0.0020 C.3      1 ZINC000001530950   -0.1300
3      C3     -1.4333   -0.5336    0.0129 C.3      1 ZINC000001530950   -0.1100
4      C4     -1.4126   -2.0635    0.0045 C.3      1 ZINC000001530950   -0.0600
5      C5     -2.8479   -2.5931    0.0153 C.3      1 ZINC000001530950   -0.1400
6      C6     -0.6964   -2.5569   -1.2543 C.3      1 ZINC000001530950    0.1000
7      O7     -1.3987   -2.0759   -2.4307 O.3      1 ZINC000001530950   -0.3600
8      C8     -0.8936   -2.4243   -3.6291 C.2      1 ZINC000001530950    0.6500
9      N9     -1.4975   -2.0108   -4.7609 N.am     1 ZINC000001530950   -0.8300
10     O10     0.1066   -3.1114   -3.6904 O.2      1 ZINC000001530950   -0.5700
11     C11    -0.6726   -2.5703    1.2440 C.3      1 ZINC000001530950    0.1000
12     O12    -1.3522   -2.1021    2.4386 O.3      1 ZINC000001530950   -0.3600
13     C13    -0.8244   -2.4632    3.6234 C.2      1 ZINC000001530950    0.6500
14     O14     0.1768   -3.1509    3.6582 O.2      1 ZINC000001530950   -0.5700
15     N15    -1.4065   -2.0620    4.7708 N.am     1 ZINC000001530950   -0.7100
16     C16    -0.8322   -2.4550    6.0600 C.3      1 ZINC000001530950    0.1500
17     C17    -1.2350   -1.4374    7.1292 C.3      1 ZINC000001530950   -0.1600
18     C18    -1.3547   -3.8389    6.4505 C.3      1 ZINC000001530950   -0.1700
19     H19     1.0039    1.9031    0.0027 H        1 ZINC000001530950    0.0500
20     H20    -0.5459    1.8868   -0.8726 H        1 ZINC000001530950    0.0500
21     H21    -0.5289    1.8773    0.9072 H        1 ZINC000001530950    0.0500
22     H22     0.5123   -0.3556   -0.8948 H        1 ZINC000001530950    0.0600
23     H23     0.5293   -0.3651    0.8851 H        1 ZINC000001530950    0.0600
24     H24    -1.9435   -0.1821    0.9097 H        1 ZINC000001530950    0.0700
25     H25    -1.9605   -0.1726   -0.8702 H        1 ZINC000001530950    0.0700
26     H26    -3.3751   -2.2320   -0.8677 H        1 ZINC000001530950    0.0700
27     H27    -2.8332   -3.6829    0.0093 H        1 ZINC000001530950    0.0600
28     H28    -3.3581   -2.2415    0.9121 H        1 ZINC000001530950    0.0700
29     H29     0.3262   -2.1796   -1.2621 H        1 ZINC000001530950    0.0800
30     H30    -0.6816   -3.6468   -1.2603 H        1 ZINC000001530950    0.0800
31     H31    -2.2960   -1.4622   -4.7120 H        1 ZINC000001530950    0.4100
32     H32    -1.1336   -2.2618   -5.6243 H        1 ZINC000001530950    0.4300
33     H33    -0.6578   -3.6602    1.2380 H        1 ZINC000001530950    0.0800
34     H34     0.3500   -2.1930    1.2363 H        1 ZINC000001530950    0.0800
35     H35    -2.2057   -1.5130    4.7431 H        1 ZINC000001530950    0.4100
36     H36     0.2544   -2.4863    5.9793 H        1 ZINC000001530950    0.0900
37     H37    -2.3215   -1.4061    7.2099 H        1 ZINC000001530950    0.0600
38     H38    -0.8077   -1.7298    8.0884 H        1 ZINC000001530950    0.0800
39     H39    -0.8627   -0.4514    6.8510 H        1 ZINC000001530950    0.0600
40     H40    -1.0677   -4.5639    5.6888 H        1 ZINC000001530950    0.0600
41     H41    -0.9274   -4.1313    7.4096 H        1 ZINC000001530950    0.0700
42     H42    -2.4413   -3.8076    6.5312 H        1 ZINC000001530950    0.0600
@<TRIPOS>BOND
1     1     2     1
2     1     19    1
3     1     20    1
4     1     21    1
5     2     3     1
6     2     22    1
7     2     23    1
8     3     4     1
9     3     24    1
10    3     25    1
11    4     5     1
12    4     6     1
13    4     11    1
14    5     26    1
15    5     27    1
16    5     28    1
17    6     7     1
18    6     29    1
19    6     30    1
20    7     8     1
21    8     9     am
22    8     10    2
23    9     31    1
24    9     32    1
25    11    12    1
26    11    33    1
27    11    34    1
28    12    13    1
29    13    14    2
30    13    15    am
31    15    16    1
32    15    35    1
33    16    17    1
34    16    18    1
35    16    36    1
36    17    37    1
37    17    38    1
38    17    39    1
39    18    40    1
40    18    41    1
41    18    42    1
@<TRIPOS>SUBSTRUCTURE
1   ZINC000001530950 1     RESIDUE    1   A     ZIN   1
