@<TRIPOS>MOLECULE
ZINC000003986735
58   61    0    0    0
SMALL
NO_CHARGES
@<TRIPOS>ATOM
1 C1             3.4964     0.9244    -0.3499 C.3
2 C2             2.7449    -0.3767    -0.2349 C.ar
3 N3             2.3813    -1.0046    -1.3342 N.ar
4 C4             1.7158    -2.1567    -1.2753 C.ar
5 N5             1.3370    -2.8117    -2.4398 N.pl3
6 C6             1.6500    -2.2690    -3.6703 C.2
7 N7             2.3001    -1.1547    -3.8461 N.2
8 C8             2.5180    -0.7757    -5.0795 C.2
9 C9             2.0162    -1.6306    -6.0215 C.2
10 C10            2.1086    -1.4657    -7.4715 C.2
11 O11            2.6745    -0.4943    -7.9390 O.2
12 N12            1.5672    -2.3891    -8.2906 N.am
13 C13            1.5879    -2.1936    -9.6756 C.ar
14 C14            2.2553    -3.0936   -10.4954 C.ar
15 C15            2.9587    -4.2830    -9.8941 C.3
16 C16            2.2735    -2.8982   -11.8629 C.ar
17 C17            1.6286    -1.8074   -12.4159 C.ar
18 C18            0.9630    -0.9081   -11.6029 C.ar
19 C19            0.9354    -1.1009   -10.2349 C.ar
20 Cl20           0.0994     0.0278    -9.2147 Cl
21 S21            1.2446    -2.9698    -5.1756 S.3
22 C22            1.4062    -2.6946    -0.0306 C.ar
23 C23            1.8086    -1.9996     1.1066 C.ar
24 N24            1.5243    -2.4936     2.3701 N.pl3
25 C25            2.1476    -1.9088     3.5672 C.3
26 C26            1.0446    -1.5805     4.5791 C.3
27 N27            0.2357    -2.7819     4.8240 N.3
28 C28           -0.7233    -2.5577     5.9139 C.3
29 C29           -1.3686    -3.8880     6.3072 C.3
30 O30           -0.3738    -4.7573     6.8519 O.3
31 C31           -0.4501    -3.2209     3.6013 C.3
32 C32            0.5868    -3.6126     2.5499 C.3
33 N33            2.4753    -0.8560     0.9626 N.ar
34 H34            4.5673     0.7238    -0.3832 H
35 H35            3.1946     1.4389    -1.2623 H
36 H36            3.2709     1.5517     0.5125 H
37 H37            3.0470     0.1316    -5.3311 H
38 H38            1.1632    -3.1892    -7.9196 H
39 H39            2.2681    -5.1246    -9.8403 H
40 H40            3.8124    -4.5528   -10.5158 H
41 H41            3.3044    -4.0320    -8.8913 H
42 H42            2.7926    -3.5982   -12.5008 H
43 H43            1.6450    -1.6571   -13.4853 H
44 H44            0.4605    -0.0569   -12.0380 H
45 H45            0.8673    -3.6269     0.0516 H
46 H46            2.8440    -2.6245     4.0041 H
47 H47            2.6783    -0.9965     3.2950 H
48 H48            1.4960    -1.2490     5.5142 H
49 H49            0.4094    -0.7892     4.1808 H
50 H50           -0.2033    -2.1376     6.7748 H
51 H51           -1.4953    -1.8637     5.5816 H
52 H52           -2.1431    -3.7097     7.0532 H
53 H53           -1.8126    -4.3511     5.4260 H
54 H54           -0.7125    -5.6213     7.1236 H
55 H55           -1.0829    -4.0792     3.8274 H
56 H56           -1.0645    -2.4069     3.2167 H
57 H57            0.0871    -3.8289     1.6056 H
58 H58            1.1358    -4.4919     2.8868 H
@<TRIPOS>BOND
1    1    2 1
2    1   34 1
3    1   35 1
4    1   36 1
5    2   33 ar
6    2    3 ar
7    3    4 ar
8    4    5 1
9    4   22 ar
10    5    6 1
11    6   21 1
12    6    7 2
13    7    8 1
14    8    9 2
15    8   37 1
16    9   10 1
17    9   21 1
18   10   11 2
19   10   12 am
20   12   13 1
21   12   38 1
22   13   19 ar
23   13   14 ar
24   14   15 1
25   14   16 ar
26   15   39 1
27   15   40 1
28   15   41 1
29   16   17 ar
30   16   42 1
31   17   18 ar
32   17   43 1
33   18   19 ar
34   18   44 1
35   19   20 1
36   22   23 ar
37   22   45 1
38   23   24 1
39   23   33 ar
40   24   32 1
41   24   25 1
42   25   26 1
43   25   46 1
44   25   47 1
45   26   27 1
46   26   48 1
47   26   49 1
48   27   28 1
49   27   31 1
50   28   29 1
51   28   50 1
52   28   51 1
53   29   30 1
54   29   52 1
55   29   53 1
56   30   54 1
57   31   32 1
58   31   55 1
59   31   56 1
60   32   57 1
61   32   58 1
