@<TRIPOS>MOLECULE
ZINC000066166864
71    76    1     0     0
SMALL
USER_CHARGES
@<TRIPOS>ATOM
1      C1     -0.0279    1.3186    0.1950 C.3      1 ZINC000066166864   -0.1400
2      C2     -0.0173   -0.2054    0.0599 C.3      1 ZINC000066166864   -0.0800
3      C3      0.5877   -0.5880   -1.2662 C.ar     1 ZINC000066166864   -0.0600
4      C4     -0.2212   -0.8176   -2.3547 C.ar     1 ZINC000066166864   -0.0600
5      C5      0.3429   -1.1754   -3.5834 C.ar     1 ZINC000066166864   -0.1300
6      C6      1.7248   -1.3073   -3.7173 C.ar     1 ZINC000066166864   -0.0200
7      C7      2.5288   -1.0679   -2.6163 C.ar     1 ZINC000066166864   -0.1500
8      C8      1.9691   -0.7054   -1.3977 C.ar     1 ZINC000066166864    0.1000
9      N9      2.7912   -0.4691   -0.3014 N.3      1 ZINC000066166864   -0.5000
10     C10     3.7402    0.6165   -0.5796 C.3      1 ZINC000066166864    0.0600
11     C11     4.5268    0.9462    0.6910 C.3      1 ZINC000066166864   -0.1400
12     C12     5.2760   -0.3039    1.1606 C.3      1 ZINC000066166864    0.0200
13     N13     5.9862   -0.0094    2.4123 N.4      1 ZINC000066166864   -0.3800
14     H14     5.3218    0.2691    3.1187 H        1 ZINC000066166864    0.4200
15     C15     6.9464    1.0797    2.1863 C.3      1 ZINC000066166864   -0.0500
16     C16     7.6849    1.3848    3.4919 C.3      1 ZINC000066166864    0.0400
17     O17     8.3359    0.1979    3.9538 O.3      1 ZINC000066166864   -0.3600
18     C18     7.4443   -0.9001    4.1660 C.3      1 ZINC000066166864    0.0400
19     C19     6.7051   -1.2095    2.8617 C.3      1 ZINC000066166864   -0.0500
20     C20     4.2698   -1.4337    1.3968 C.3      1 ZINC000066166864   -0.1400
21     C21     3.4907   -1.6945    0.1057 C.3      1 ZINC000066166864    0.0600
22     C22     2.3949   -1.7103   -5.0027 C.3      1 ZINC000066166864    0.0300
23     C23     3.6038   -0.8029   -5.2393 C.3      1 ZINC000066166864   -0.1500
24     C24     2.8760   -3.1575   -4.8804 C.3      1 ZINC000066166864   -0.1400
25     C25     1.4661   -1.6037   -6.1793 C.2      1 ZINC000066166864    0.1600
26     C26     0.1002   -1.4717   -6.0585 C.2      1 ZINC000066166864   -0.2500
27     C27    -0.4471   -1.4115   -7.3986 C.ar     1 ZINC000066166864   -0.0300
28     C28    -1.7488   -1.2878   -7.8905 C.ar     1 ZINC000066166864   -0.0600
29     C29    -1.9038   -1.2625   -9.2521 C.ar     1 ZINC000066166864   -0.0900
30     C30    -0.8126   -1.3556  -10.1210 C.ar     1 ZINC000066166864    0.0000
31     C31    -1.0427   -1.3216  -11.5340 C.1      1 ZINC000066166864    0.2500
32     N32    -1.2252   -1.2946  -12.6549 N.1      1 ZINC000066166864   -0.4100
33     C33     0.4990   -1.4807   -9.6476 C.ar     1 ZINC000066166864   -0.0600
34     C34     0.6703   -1.5083   -8.2696 C.ar     1 ZINC000066166864    0.0800
35     N35     1.7943   -1.6196   -7.4941 N.pl3    1 ZINC000066166864   -0.5600
36     C36    -0.5545   -1.4051   -4.7437 C.2      1 ZINC000066166864    0.4600
37     O37    -1.7583   -1.5309   -4.6143 O.2      1 ZINC000066166864   -0.4400
38     H38     0.9972    1.6875    0.2281 H        1 ZINC000066166864    0.0500
39     H39    -0.5438    1.7555   -0.6600 H        1 ZINC000066166864    0.0500
40     H40    -0.5447    1.5984    1.1130 H        1 ZINC000066166864    0.0600
41     H41     0.5740   -0.6376    0.8672 H        1 ZINC000066166864    0.0800
42     H42    -1.0385   -0.5823    0.1156 H        1 ZINC000066166864    0.0700
43     H43    -1.2928   -0.7219   -2.2603 H        1 ZINC000066166864    0.1400
44     H44     3.6011   -1.1597   -2.7066 H        1 ZINC000066166864    0.1300
45     H45     4.4304    0.3037   -1.3631 H        1 ZINC000066166864    0.0500
46     H46     3.1942    1.5007   -0.9085 H        1 ZINC000066166864    0.1000
47     H47     5.2419    1.7414    0.4802 H        1 ZINC000066166864    0.1000
48     H48     3.8385    1.2724    1.4708 H        1 ZINC000066166864    0.1000
49     H49     5.9929   -0.6069    0.3976 H        1 ZINC000066166864    0.1400
50     H50     7.6649    0.7787    1.4239 H        1 ZINC000066166864    0.1400
51     H51     6.4139    1.9705    1.8530 H        1 ZINC000066166864    0.1400
52     H52     8.4279    2.1628    3.3166 H        1 ZINC000066166864    0.1400
53     H53     6.9715    1.7244    4.2428 H        1 ZINC000066166864    0.0800
54     H54     8.0132   -1.7758    4.4785 H        1 ZINC000066166864    0.1400
55     H55     6.7227   -0.6387    4.9400 H        1 ZINC000066166864    0.0800
56     H56     5.9938   -2.0181    3.0299 H        1 ZINC000066166864    0.1400
57     H57     7.4236   -1.5097    2.0990 H        1 ZINC000066166864    0.1400
58     H58     4.8014   -2.3389    1.6902 H        1 ZINC000066166864    0.1000
59     H59     3.5775   -1.1450    2.1876 H        1 ZINC000066166864    0.1000
60     H60     2.7635   -2.4887    0.2745 H        1 ZINC000066166864    0.1000
61     H61     4.1820   -1.9964   -0.6810 H        1 ZINC000066166864    0.0500
62     H62     4.3043   -0.9075   -4.4108 H        1 ZINC000066166864    0.0700
63     H63     4.0957   -1.0881   -6.1693 H        1 ZINC000066166864    0.0700
64     H64     3.2726    0.2334   -5.3064 H        1 ZINC000066166864    0.0700
65     H65     2.0232   -3.8091   -4.6902 H        1 ZINC000066166864    0.0700
66     H66     3.3631   -3.4581   -5.8080 H        1 ZINC000066166864    0.0700
67     H67     3.5846   -3.2364   -4.0558 H        1 ZINC000066166864    0.0700
68     H68    -2.5971   -1.2154   -7.2260 H        1 ZINC000066166864    0.1500
69     H69    -2.8971   -1.1678   -9.6654 H        1 ZINC000066166864    0.1400
70     H70     1.3388   -1.5527  -10.3228 H        1 ZINC000066166864    0.1400
71     H71     2.6978   -1.6991   -7.8378 H        1 ZINC000066166864    0.4200
@<TRIPOS>BOND
1     1     2     1
2     1     38    1
3     1     39    1
4     1     40    1
5     2     3     1
6     2     41    1
7     2     42    1
8     3     8     ar
9     3     4     ar
10    4     5     ar
11    4     43    1
12    5     36    1
13    5     6     ar
14    6     7     ar
15    6     22    1
16    7     8     ar
17    7     44    1
18    8     9     1
19    9     21    1
20    9     10    1
21    10    11    1
22    10    45    1
23    10    46    1
24    11    12    1
25    11    47    1
26    11    48    1
27    12    13    1
28    12    20    1
29    12    49    1
30    13    14    1
31    13    19    1
32    13    15    1
33    15    16    1
34    15    50    1
35    15    51    1
36    16    17    1
37    16    52    1
38    16    53    1
39    17    18    1
40    18    19    1
41    18    54    1
42    18    55    1
43    19    56    1
44    19    57    1
45    20    21    1
46    20    58    1
47    20    59    1
48    21    60    1
49    21    61    1
50    22    23    1
51    22    24    1
52    22    25    1
53    23    62    1
54    23    63    1
55    23    64    1
56    24    65    1
57    24    66    1
58    24    67    1
59    25    35    1
60    25    26    2
61    26    27    1
62    26    36    1
63    27    34    ar
64    27    28    ar
65    28    29    ar
66    28    68    1
67    29    30    ar
68    29    69    1
69    30    31    1
70    30    33    ar
71    31    32    3
72    33    34    ar
73    33    70    1
74    34    35    1
75    35    71    1
76    36    37    2
@<TRIPOS>SUBSTRUCTURE
1   ZINC000066166864 1     RESIDUE    1   A     ZIN   1
