@<TRIPOS>MOLECULE
ZINC000100014909
74    78    1     0     0
SMALL
USER_CHARGES
@<TRIPOS>ATOM
1      C1     -6.8651   -3.8237    3.9350 C.3      1 ZINC000100014909    0.0400
2      O2     -5.7197   -4.4517    3.3010 O.3      1 ZINC000100014909   -0.3500
3      C3     -4.5684   -4.4733    4.0011 C.2      1 ZINC000100014909    0.5100
4      O4     -4.5229   -3.9808    5.1110 O.2      1 ZINC000100014909   -0.5000
5      C5     -3.3642   -5.0944    3.4204 C.ar     1 ZINC000100014909   -0.0900
6      C6     -3.4183   -5.6558    2.1392 C.ar     1 ZINC000100014909   -0.0800
7      C7     -2.3063   -6.2323    1.5953 C.ar     1 ZINC000100014909   -0.0800
8      C8     -1.1138   -6.2632    2.3160 C.ar     1 ZINC000100014909   -0.0600
9      C9     -1.0443   -5.7036    3.6036 C.ar     1 ZINC000100014909    0.1300
10     C10    -2.1722   -5.1152    4.1486 C.ar     1 ZINC000100014909   -0.0700
11     N11     0.2492   -5.8737    4.0824 N.am     1 ZINC000100014909   -0.6500
12     C12     1.0147   -6.5091    3.1795 C.2      1 ZINC000100014909    0.5700
13     O13     2.1905   -6.7950    3.3246 O.2      1 ZINC000100014909   -0.4900
14     C14     0.2326   -6.7943    2.0291 C.2      1 ZINC000100014909   -0.2100
15     C15     0.6498   -7.4421    0.8700 C.2      1 ZINC000100014909    0.3200
16     N16    -0.1767   -7.4943   -0.2206 N.pl3    1 ZINC000100014909   -0.6800
17     C17    -0.6081   -8.7302   -0.7125 C.ar     1 ZINC000100014909    0.2000
18     C18    -0.2189   -9.9042   -0.0796 C.ar     1 ZINC000100014909   -0.1600
19     C19    -0.6452  -11.1239   -0.5651 C.ar     1 ZINC000100014909   -0.0700
20     C20    -1.4628  -11.1777   -1.6864 C.ar     1 ZINC000100014909    0.0900
21     N21    -1.8949  -12.4156   -2.1791 N.am     1 ZINC000100014909   -0.5600
22     C22    -0.9147  -13.4106   -2.6211 C.3      1 ZINC000100014909    0.0700
23     C23    -3.2125  -12.6913   -2.2466 C.2      1 ZINC000100014909    0.5100
24     O24    -4.0260  -11.8371   -1.9644 O.2      1 ZINC000100014909   -0.5100
25     C25    -3.6748  -14.0609   -2.6727 C.3      1 ZINC000100014909    0.0400
26     N26    -5.1376  -14.0638   -2.8081 N.3      1 ZINC000100014909   -0.5200
27     C27    -5.6464  -15.4297   -2.9963 C.3      1 ZINC000100014909    0.0300
28     C28    -7.1744  -15.3955   -3.0731 C.3      1 ZINC000100014909    0.0000
29     N29    -7.5895  -14.5413   -4.1935 N.4      1 ZINC000100014909   -0.3900
30     H30    -7.2079  -14.9058   -5.0535 H        1 ZINC000100014909    0.4200
31     C31    -9.0559  -14.5229   -4.2778 C.3      1 ZINC000100014909   -0.0500
32     C32    -7.0948  -13.1749   -3.9791 C.3      1 ZINC000100014909    0.0000
33     C33    -5.5662  -13.1906   -3.9099 C.3      1 ZINC000100014909    0.0200
34     C34    -1.8525  -10.0043   -2.3190 C.ar     1 ZINC000100014909   -0.0600
35     C35    -1.4307   -8.7841   -1.8309 C.ar     1 ZINC000100014909   -0.1600
36     C36     1.9817   -8.0722    0.8163 C.ar     1 ZINC000100014909   -0.1000
37     C37     2.8585   -7.7730   -0.2303 C.ar     1 ZINC000100014909   -0.0800
38     C38     4.1028   -8.3659   -0.2735 C.ar     1 ZINC000100014909   -0.1300
39     C39     4.4842   -9.2551    0.7161 C.ar     1 ZINC000100014909   -0.0900
40     C40     3.6213   -9.5566    1.7552 C.ar     1 ZINC000100014909   -0.1200
41     C41     2.3760   -8.9672    1.8150 C.ar     1 ZINC000100014909   -0.0500
42     H42    -6.6341   -2.7806    4.1512 H        1 ZINC000100014909    0.0700
43     H43    -7.7240   -3.8745    3.2659 H        1 ZINC000100014909    0.1100
44     H44    -7.0969   -4.3445    4.8641 H        1 ZINC000100014909    0.0700
45     H45    -4.3418   -5.6332    1.5797 H        1 ZINC000100014909    0.1400
46     H46    -2.3510   -6.6646    0.6066 H        1 ZINC000100014909    0.1300
47     H47    -2.1333   -4.6813    5.1368 H        1 ZINC000100014909    0.1500
48     H48     0.5579   -5.5735    4.9515 H        1 ZINC000100014909    0.4200
49     H49    -0.4629   -6.6739   -0.6519 H        1 ZINC000100014909    0.4200
50     H50     0.4176   -9.8624    0.7920 H        1 ZINC000100014909    0.1300
51     H51    -0.3426  -12.0364   -0.0731 H        1 ZINC000100014909    0.1300
52     H52    -0.6388  -14.0471   -1.7803 H        1 ZINC000100014909    0.0700
53     H53    -1.3489  -14.0218   -3.4123 H        1 ZINC000100014909    0.0700
54     H54    -0.0273  -12.9033   -2.9994 H        1 ZINC000100014909    0.0800
55     H55    -3.2208  -14.3161   -3.6302 H        1 ZINC000100014909    0.0800
56     H56    -3.3779  -14.7942   -1.9229 H        1 ZINC000100014909    0.1200
57     H57    -5.2449  -15.8431   -3.9215 H        1 ZINC000100014909    0.0600
58     H58    -5.3383  -16.0516   -2.1558 H        1 ZINC000100014909    0.1300
59     H59    -7.5531  -16.4060   -3.2269 H        1 ZINC000100014909    0.1400
60     H60    -7.5760  -14.9948   -2.1424 H        1 ZINC000100014909    0.1400
61     H61    -9.4684  -14.1296   -3.3486 H        1 ZINC000100014909    0.1200
62     H62    -9.3642  -13.8890   -5.1092 H        1 ZINC000100014909    0.1200
63     H63    -9.4234  -15.5366   -4.4380 H        1 ZINC000100014909    0.1200
64     H64    -7.4146  -12.5391   -4.8047 H        1 ZINC000100014909    0.1400
65     H65    -7.4969  -12.7855   -3.0438 H        1 ZINC000100014909    0.1400
66     H66    -5.1996  -12.1790   -3.7359 H        1 ZINC000100014909    0.1300
67     H67    -5.1634  -13.5671   -4.8501 H        1 ZINC000100014909    0.0600
68     H68    -2.4886  -10.0465   -3.1908 H        1 ZINC000100014909    0.1200
69     H69    -1.7340   -7.8717   -2.3226 H        1 ZINC000100014909    0.1300
70     H70     2.5621   -7.0796   -1.0034 H        1 ZINC000100014909    0.1200
71     H71     4.7813   -8.1360   -1.0818 H        1 ZINC000100014909    0.1300
72     H72     5.4600   -9.7163    0.6770 H        1 ZINC000100014909    0.1300
73     H73     3.9257  -10.2517    2.5237 H        1 ZINC000100014909    0.1300
74     H74     1.7036   -9.2033    2.6265 H        1 ZINC000100014909    0.1200
@<TRIPOS>BOND
1     1     2     1
2     1     42    1
3     1     43    1
4     1     44    1
5     2     3     1
6     3     4     2
7     3     5     1
8     5     10    ar
9     5     6     ar
10    6     7     ar
11    6     45    1
12    7     8     ar
13    7     46    1
14    8     14    1
15    8     9     ar
16    9     10    ar
17    9     11    1
18    10    47    1
19    11    12    am
20    11    48    1
21    12    13    2
22    12    14    1
23    14    15    2
24    15    16    1
25    15    36    1
26    16    17    1
27    16    49    1
28    17    35    ar
29    17    18    ar
30    18    19    ar
31    18    50    1
32    19    20    ar
33    19    51    1
34    20    21    1
35    20    34    ar
36    21    22    1
37    21    23    am
38    22    52    1
39    22    53    1
40    22    54    1
41    23    24    2
42    23    25    1
43    25    26    1
44    25    55    1
45    25    56    1
46    26    33    1
47    26    27    1
48    27    28    1
49    27    57    1
50    27    58    1
51    28    29    1
52    28    59    1
53    28    60    1
54    29    30    1
55    29    31    1
56    29    32    1
57    31    61    1
58    31    62    1
59    31    63    1
60    32    33    1
61    32    64    1
62    32    65    1
63    33    66    1
64    33    67    1
65    34    35    ar
66    34    68    1
67    35    69    1
68    36    41    ar
69    36    37    ar
70    37    38    ar
71    37    70    1
72    38    39    ar
73    38    71    1
74    39    40    ar
75    39    72    1
76    40    41    ar
77    40    73    1
78    41    74    1
@<TRIPOS>SUBSTRUCTURE
1   ZINC000100014909 1     RESIDUE    1   A     ZIN   1
