@<TRIPOS>MOLECULE
ZINC000000000061
26    26    1     0     0
SMALL
USER_CHARGES
@<TRIPOS>ATOM
1      N1     -0.0116    1.0048    0.0076 N.4      1 ZINC000000000061   -0.6300
2      H2      0.0021   -0.0041    0.0020 H        1 ZINC000000000061    0.4300
3      H3      0.9350    1.3541    0.0004 H        1 ZINC000000000061    0.4200
4      H4     -0.4996    1.3391   -0.8099 H        1 ZINC000000000061    0.4300
5      C5     -0.6992    1.4786    1.2162 C.3      1 ZINC000000000061   -0.0100
6      C6      0.0408    0.9717    2.4557 C.3      1 ZINC000000000061   -0.0400
7      H7      0.1333   -0.1132    2.4053 H        1 ZINC000000000061    0.1000
8      C8     -0.7429    1.3590    3.7114 C.3      1 ZINC000000000061   -0.1800
9      C9     -2.0683    0.6420    3.7174 C.2      1 ZINC000000000061    0.4900
10     O10    -2.3592   -0.1092    2.8022 O.co2    1 ZINC000000000061   -0.7000
11     O11    -2.8498    0.8130    4.6375 O.co2    1 ZINC000000000061   -0.6800
12     C12     1.4136    1.5910    2.5094 C.ar     1 ZINC000000000061   -0.1100
13     C13     1.5495    2.9648    2.5833 C.ar     1 ZINC000000000061   -0.1000
14     C14     2.8083    3.5333    2.6326 C.ar     1 ZINC000000000061   -0.1000
15     C15     3.9325    2.7273    2.6079 C.ar     1 ZINC000000000061   -0.0300
16     Cl16    5.5140    3.4407    2.6704 Cl       1 ZINC000000000061   -0.0600
17     C17     3.7959    1.3525    2.5339 C.ar     1 ZINC000000000061   -0.1100
18     C18     2.5365    0.7849    2.4904 C.ar     1 ZINC000000000061   -0.1100
19     H19    -0.7140    2.5685    1.2222 H        1 ZINC000000000061    0.1200
20     H20    -1.7218    1.1013    1.2239 H        1 ZINC000000000061    0.1700
21     H21    -0.1731    1.0768    4.5967 H        1 ZINC000000000061    0.0800
22     H22    -0.9122    2.4358    3.7163 H        1 ZINC000000000061    0.0700
23     H23     0.6718    3.5938    2.6022 H        1 ZINC000000000061    0.1400
24     H24     2.9143    4.6066    2.6900 H        1 ZINC000000000061    0.1400
25     H25     4.6732    0.7229    2.5143 H        1 ZINC000000000061    0.1400
26     H26     2.4297   -0.2883    2.4330 H        1 ZINC000000000061    0.1400
@<TRIPOS>BOND
1     1     2     1
2     1     3     1
3     1     4     1
4     1     5     1
5     5     6     1
6     5     19    1
7     5     20    1
8     6     7     1
9     6     8     1
10    6     12    1
11    8     9     1
12    8     21    1
13    8     22    1
14    9     10    ar
15    9     11    ar
16    12    18    ar
17    12    13    ar
18    13    14    ar
19    13    23    1
20    14    15    ar
21    14    24    1
22    15    16    1
23    15    17    ar
24    17    18    ar
25    17    25    1
26    18    26    1
@<TRIPOS>SUBSTRUCTURE
1   ZINC000000000061 1     RESIDUE    1   A     ZIN   1
