@<TRIPOS>MOLECULE
ZINC000003819392
50    53    1     0     0
SMALL
USER_CHARGES
@<TRIPOS>ATOM
1      C1     -0.0176    1.4478    0.0100 C.3      1 ZINC000003819392    0.0500
2      O2      0.0021   -0.0041    0.0020 O.3      1 ZINC000003819392   -0.3700
3      C3     -1.1894   -0.6317    0.0100 C.2      1 ZINC000003819392    0.6400
4      O4     -2.2175    0.0162    0.0233 O.2      1 ZINC000003819392   -0.5500
5      N5     -1.2417   -1.9785    0.0033 N.am     1 ZINC000003819392   -0.5300
6      C6     -0.0024   -2.7595   -0.0127 C.3      1 ZINC000003819392    0.0800
7      C7     -2.4845   -2.6332    0.0116 C.ar     1 ZINC000003819392   -0.0900
8      C8     -3.1091   -2.9681    1.2157 C.ar     1 ZINC000003819392    0.4900
9      N9     -2.5102   -2.6580    2.4296 N.pl3    1 ZINC000003819392   -0.8300
10     N10    -4.2849   -3.5874    1.1830 N.ar     1 ZINC000003819392   -0.5700
11     C11    -4.8640   -3.8868    0.0276 C.ar     1 ZINC000003819392    0.4900
12     C12    -6.1739   -4.5769    0.0364 C.2      1 ZINC000003819392    0.1500
13     N13    -6.8558   -4.9349    1.0982 N.2      1 ZINC000003819392   -0.1700
14     N14    -8.0447   -5.5617    0.7130 N.pl3    1 ZINC000003819392   -0.3800
15     C15    -9.0567   -6.0929    1.6294 C.3      1 ZINC000003819392    0.1900
16     C16   -10.0654   -5.0178    1.9417 C.ar     1 ZINC000003819392   -0.1600
17     C17    -9.9175   -4.2390    3.0734 C.ar     1 ZINC000003819392   -0.0600
18     C18   -10.8429   -3.2525    3.3603 C.ar     1 ZINC000003819392   -0.1400
19     C19   -11.9171   -3.0444    2.5157 C.ar     1 ZINC000003819392   -0.0800
20     C20   -12.0674   -3.8225    1.3832 C.ar     1 ZINC000003819392   -0.1600
21     C21   -11.1379   -4.8061    1.0915 C.ar     1 ZINC000003819392    0.1300
22     F22   -11.2838   -5.5673   -0.0151 F        1 ZINC000003819392   -0.1200
23     C23    -8.1166   -5.6012   -0.6542 C.ar     1 ZINC000003819392    0.3100
24     N24    -9.0161   -6.0766   -1.5071 N.ar     1 ZINC000003819392   -0.4900
25     C25    -8.8432   -5.9876   -2.8081 C.ar     1 ZINC000003819392    0.1700
26     C26    -7.7134   -5.3936   -3.3513 C.ar     1 ZINC000003819392   -0.2200
27     C27    -6.7494   -4.8842   -2.5195 C.ar     1 ZINC000003819392    0.0200
28     C28    -6.9504   -4.9802   -1.1401 C.ar     1 ZINC000003819392   -0.1900
29     N29    -4.3020   -3.5845   -1.1353 N.ar     1 ZINC000003819392   -0.5800
30     C30    -3.1293   -2.9604   -1.1838 C.ar     1 ZINC000003819392    0.4900
31     N31    -2.5481   -2.6478   -2.4057 N.pl3    1 ZINC000003819392   -0.8300
32     H32     1.0050    1.8251    0.0023 H        1 ZINC000003819392    0.1100
33     H33    -0.5448    1.8089   -0.8731 H        1 ZINC000003819392    0.0600
34     H34    -0.5278    1.7993    0.9068 H        1 ZINC000003819392    0.0600
35     H35     0.3148   -2.9588    1.0109 H        1 ZINC000003819392    0.0600
36     H36    -0.1744   -3.7034   -0.5300 H        1 ZINC000003819392    0.0800
37     H37     0.7746   -2.1976   -0.5310 H        1 ZINC000003819392    0.0800
38     H38    -1.6522   -2.2058    2.4457 H        1 ZINC000003819392    0.4100
39     H39    -2.9498   -2.8937    3.2616 H        1 ZINC000003819392    0.4100
40     H40    -9.5606   -6.9395    1.1629 H        1 ZINC000003819392    0.1100
41     H41    -8.5762   -6.4193    2.5517 H        1 ZINC000003819392    0.1100
42     H42    -9.0789   -4.4011    3.7344 H        1 ZINC000003819392    0.1400
43     H43   -10.7264   -2.6443    4.2451 H        1 ZINC000003819392    0.1300
44     H44   -12.6395   -2.2738    2.7409 H        1 ZINC000003819392    0.1300
45     H45   -12.9072   -3.6602    0.7238 H        1 ZINC000003819392    0.1400
46     H46    -9.5985   -6.3867   -3.4689 H        1 ZINC000003819392    0.1700
47     H47    -7.5936   -5.3329   -4.4229 H        1 ZINC000003819392    0.1400
48     H48    -5.8614   -4.4177   -2.9197 H        1 ZINC000003819392    0.1500
49     H49    -2.9981   -2.8849   -3.2317 H        1 ZINC000003819392    0.4100
50     H50    -1.6922   -2.1922   -2.4333 H        1 ZINC000003819392    0.4100
@<TRIPOS>BOND
1     1     2     1
2     1     32    1
3     1     33    1
4     1     34    1
5     2     3     1
6     3     4     2
7     3     5     am
8     5     6     1
9     5     7     1
10    6     35    1
11    6     36    1
12    6     37    1
13    7     30    ar
14    7     8     ar
15    8     9     1
16    8     10    ar
17    9     38    1
18    9     39    1
19    10    11    ar
20    11    12    1
21    11    29    ar
22    12    28    1
23    12    13    2
24    13    14    1
25    14    15    1
26    14    23    1
27    15    16    1
28    15    40    1
29    15    41    1
30    16    21    ar
31    16    17    ar
32    17    18    ar
33    17    42    1
34    18    19    ar
35    18    43    1
36    19    20    ar
37    19    44    1
38    20    21    ar
39    20    45    1
40    21    22    1
41    23    28    ar
42    23    24    ar
43    24    25    ar
44    25    26    ar
45    25    46    1
46    26    27    ar
47    26    47    1
48    27    28    ar
49    27    48    1
50    29    30    ar
51    30    31    1
52    31    49    1
53    31    50    1
@<TRIPOS>SUBSTRUCTURE
1   ZINC000003819392 1     RESIDUE    1   A     ZIN   1
