@<TRIPOS>MOLECULE
ZINC000003993846
77    79    1     0     0
SMALL
USER_CHARGES
@<TRIPOS>ATOM
1      C1     -0.7351    1.3703    0.0817 C.3      1 ZINC000003993846   -0.1100
2      C2     -0.2091   -0.0407    0.0231 C.2      1 ZINC000003993846   -0.0900
3      C3      0.1221   -0.6719    1.1415 C.2      1 ZINC000003993846   -0.1000
4      C4      0.1246    0.0557    2.4275 C.2      1 ZINC000003993846    0.1000
5      C5      0.3408   -0.5502    3.6151 C.2      1 ZINC000003993846   -0.2600
6      S6      0.2574    0.6806    4.8728 S.3      1 ZINC000003993846    0.1300
7      C7     -0.0568    1.8805    3.6971 C.2      1 ZINC000003993846    0.0500
8      C8     -0.2714    3.3416    3.9977 C.3      1 ZINC000003993846   -0.0800
9      N9     -0.0798    1.3632    2.5182 N.2      1 ZINC000003993846   -0.4600
10     C10    -0.0590   -0.7356   -1.3085 C.3      1 ZINC000003993846    0.1900
11     H11     0.2480   -1.7698   -1.1406 H        1 ZINC000003993846    0.0900
12     C12     1.0102   -0.0174   -2.1354 C.3      1 ZINC000003993846   -0.1200
13     C13     2.3668   -0.1640   -1.4402 C.3      1 ZINC000003993846    0.0100
14     H14     2.4232   -0.9282   -0.6656 H        1 ZINC000003993846    0.1200
15     O15     3.1523    1.0183   -1.2755 O.3      1 ZINC000003993846   -0.3500
16     C16     3.6260    0.1027   -2.2666 C.3      1 ZINC000003993846    0.0200
17     C17     4.8886   -0.6968   -1.9305 C.3      1 ZINC000003993846   -0.1300
18     C18     3.4470    0.4903   -3.7356 C.3      1 ZINC000003993846   -0.1000
19     C19     3.3932   -0.7627   -4.6063 C.3      1 ZINC000003993846   -0.1100
20     C20     2.0952   -0.7752   -5.4237 C.3      1 ZINC000003993846   -0.1200
21     C21     2.4027   -1.2783   -6.8340 C.3      1 ZINC000003993846   -0.0800
22     H22     3.3819   -1.7748   -6.8174 H        1 ZINC000003993846    0.0700
23     C23     2.4727   -0.1013   -7.8054 C.3      1 ZINC000003993846   -0.1400
24     C24     1.3522   -2.2914   -7.2764 C.3      1 ZINC000003993846    0.1100
25     H25     1.3720   -3.1502   -6.6047 H        1 ZINC000003993846    0.0800
26     O26     1.6621   -2.7383   -8.6027 O.3      1 ZINC000003993846   -0.5700
27     C27    -0.0496   -1.6715   -7.2798 C.3      1 ZINC000003993846   -0.1700
28     H28    -0.0117   -0.6866   -6.8286 H        1 ZINC000003993846    0.1000
29     C29    -0.5101   -1.5626   -8.7402 C.3      1 ZINC000003993846   -0.1400
30     C30    -0.9974   -2.5639   -6.5193 C.2      1 ZINC000003993846    0.3800
31     O31    -0.5958   -3.6557   -6.1757 O.2      1 ZINC000003993846   -0.4100
32     C32    -2.4116   -2.1499   -6.2138 C.3      1 ZINC000003993846   -0.0900
33     C33    -2.5654   -0.6345   -6.3404 C.3      1 ZINC000003993846   -0.1500
34     C34    -3.3320   -2.7992   -7.2732 C.3      1 ZINC000003993846   -0.1500
35     C35    -2.8808   -2.6404   -4.8528 C.3      1 ZINC000003993846    0.1400
36     H36    -3.9389   -2.9624   -4.9728 H        1 ZINC000003993846    0.0500
37     O37    -2.1624   -3.8060   -4.4401 O.3      1 ZINC000003993846   -0.5200
38     C38    -2.8509   -1.5990   -3.7500 C.3      1 ZINC000003993846   -0.1900
39     C39    -1.4802   -1.4734   -3.1382 C.2      1 ZINC000003993846    0.5100
40     O40    -0.5208   -2.0282   -3.6235 O.2      1 ZINC000003993846   -0.4900
41     N41    -1.3509   -0.7055   -2.0186 N.am     1 ZINC000003993846   -0.7400
42     H42     0.1009    2.0682    0.1262 H        1 ZINC000003993846    0.0800
43     H43    -1.3308    1.5732   -0.8083 H        1 ZINC000003993846    0.0500
44     H44    -1.3560    1.4900    0.9696 H        1 ZINC000003993846    0.0900
45     H45     0.3899   -1.7178    1.1123 H        1 ZINC000003993846    0.1300
46     H46     0.5308   -1.6025    3.7669 H        1 ZINC000003993846    0.1800
47     H47    -0.1951    3.5064    5.0724 H        1 ZINC000003993846    0.0800
48     H48     0.4868    3.9332    3.4846 H        1 ZINC000003993846    0.0900
49     H49    -1.2610    3.6418    3.6533 H        1 ZINC000003993846    0.0900
50     H50     1.0632   -0.4573   -3.1300 H        1 ZINC000003993846    0.1100
51     H51     0.7594    1.0403   -2.2187 H        1 ZINC000003993846    0.0800
52     H52     5.1515   -0.5381   -0.8847 H        1 ZINC000003993846    0.0700
53     H53     4.7036   -1.7572   -2.1018 H        1 ZINC000003993846    0.0800
54     H54     5.7093   -0.3639   -2.5660 H        1 ZINC000003993846    0.0700
55     H55     2.5210    1.0562   -3.8472 H        1 ZINC000003993846    0.0700
56     H56     4.2864    1.1149   -4.0473 H        1 ZINC000003993846    0.0700
57     H57     4.2447   -0.7616   -5.2903 H        1 ZINC000003993846    0.0700
58     H58     3.4286   -1.6583   -3.9889 H        1 ZINC000003993846    0.0700
59     H59     1.3764   -1.4414   -4.9467 H        1 ZINC000003993846    0.0900
60     H60     1.6858    0.2311   -5.4732 H        1 ZINC000003993846    0.0600
61     H61     3.2595    0.5839   -7.4899 H        1 ZINC000003993846    0.0500
62     H62     2.6922   -0.4698   -8.8075 H        1 ZINC000003993846    0.0600
63     H63     1.5165    0.4218   -7.8120 H        1 ZINC000003993846    0.0500
64     H64     1.0374   -3.3866   -8.9553 H        1 ZINC000003993846    0.3700
65     H65    -0.5344   -2.5558   -9.1885 H        1 ZINC000003993846    0.0600
66     H66    -1.5072   -1.1237   -8.7749 H        1 ZINC000003993846    0.0600
67     H67     0.1844   -0.9308   -9.2940 H        1 ZINC000003993846    0.0800
68     H68    -2.3188   -0.3280   -7.3569 H        1 ZINC000003993846    0.0700
69     H69    -3.5944   -0.3538   -6.1158 H        1 ZINC000003993846    0.0700
70     H70    -1.8928   -0.1411   -5.6388 H        1 ZINC000003993846    0.0600
71     H71    -3.2356   -3.8838   -7.2226 H        1 ZINC000003993846    0.0700
72     H72    -4.3665   -2.5169   -7.0778 H        1 ZINC000003993846    0.0700
73     H73    -3.0427   -2.4548   -8.2661 H        1 ZINC000003993846    0.0600
74     H74    -2.4323   -4.1495   -3.5774 H        1 ZINC000003993846    0.3700
75     H75    -3.2391   -0.6329   -4.0334 H        1 ZINC000003993846    0.1100
76     H76    -3.5279   -1.9538   -2.9418 H        1 ZINC000003993846    0.0900
77     H77    -2.0950   -0.1641   -1.6947 H        1 ZINC000003993846    0.4000
@<TRIPOS>BOND
1     1     2     1
2     1     42    1
3     1     43    1
4     1     44    1
5     2     3     2
6     2     10    1
7     3     4     1
8     3     45    1
9     4     9     1
10    4     5     2
11    5     6     1
12    5     46    1
13    6     7     1
14    7     8     1
15    7     9     2
16    8     47    1
17    8     48    1
18    8     49    1
19    10    11    1
20    10    41    1
21    10    12    1
22    12    13    1
23    12    50    1
24    12    51    1
25    13    14    1
26    13    16    1
27    13    15    1
28    15    16    1
29    16    17    1
30    16    18    1
31    17    52    1
32    17    53    1
33    17    54    1
34    18    19    1
35    18    55    1
36    18    56    1
37    19    20    1
38    19    57    1
39    19    58    1
40    20    21    1
41    20    59    1
42    20    60    1
43    21    22    1
44    21    23    1
45    21    24    1
46    23    61    1
47    23    62    1
48    23    63    1
49    24    25    1
50    24    26    1
51    24    27    1
52    26    64    1
53    27    28    1
54    27    29    1
55    27    30    1
56    29    65    1
57    29    66    1
58    29    67    1
59    30    31    2
60    30    32    1
61    32    33    1
62    32    34    1
63    32    35    1
64    33    68    1
65    33    69    1
66    33    70    1
67    34    71    1
68    34    72    1
69    34    73    1
70    35    36    1
71    35    37    1
72    35    38    1
73    37    74    1
74    38    39    1
75    38    75    1
76    38    76    1
77    39    40    2
78    39    41    am
79    41    77    1
@<TRIPOS>SUBSTRUCTURE
1   ZINC000003993846 1     RESIDUE    1   A     ZIN   1
