@<TRIPOS>MOLECULE
ZINC000001542113
60   64    0    0    0
SMALL
USER_CHARGES
NO_NAME
@<TRIPOS>ATOM
1 N1        0.0211    -1.1411     0.0050 N.1    1 <0>      -0.4200
2 C2        0.0095    -0.0053     0.0232 C.1    1 <0>       0.2600
3 C3       -0.0050     1.4265     0.0463 C.ar   1 <0>      -0.0600
4 C4       -1.2262     2.1141     0.0823 C.ar   1 <0>      -0.0500
5 C5       -1.2563     3.4773     0.1041 C.ar   1 <0>      -0.1300
6 C6       -0.0690     4.2058     0.0909 C.ar   1 <0>       0.1200
7 N7        0.2106     5.5519     0.1056 N.pl3  1 <0>      -0.5900
8 C8        1.5648     5.7482     0.0808 C.2    1 <0>       0.0500
9 C9        2.1987     4.5658     0.0497 C.2    1 <0>      -0.1600
10 C10       3.6895     4.3478     0.0162 C.3    1 <0>      -0.0500
11 C11       4.1466     4.1712    -1.4332 C.3    1 <0>      -0.1100
12 C12       5.6602     3.9498    -1.4672 C.3    1 <0>      -0.1200
13 C13       6.1173     3.7732    -2.9166 C.3    1 <0>       0.0600
14 N14       7.5705     3.5607    -2.9492 N.3    1 <0>      -0.5400
15 C15       8.2627     4.5215    -2.0799 C.3    1 <0>       0.0300
16 C16       9.7483     4.1545    -1.9998 C.3    1 <0>       0.1200
17 N17      10.2802     4.0580    -3.3676 N.pl3  1 <0>      -0.6300
18 C18      11.4418     4.7454    -3.7367 C.ar   1 <0>       0.2100
19 C19      11.9922     4.5512    -5.0026 C.ar   1 <0>      -0.1500
20 C20      13.1353     5.2194    -5.3818 C.ar   1 <0>      -0.0600
21 C21      13.7537     6.0983    -4.5004 C.ar   1 <0>       0.0200
22 O22      14.8546     6.8716    -4.5921 O.3    1 <0>      -0.1900
23 C23      15.0527     7.5628    -3.4503 C.2    1 <0>      -0.0300
24 C24      16.1596     8.4993    -3.2100 C.2    1 <0>       0.6100
25 N25      17.0763     8.7206    -4.1729 N.am   1 <0>      -0.8400
26 O26      16.2484     9.0748    -2.1418 O.2    1 <0>      -0.5200
27 C27      14.0748     7.2629    -2.5569 C.2    1 <0>      -0.1200
28 C28      13.2005     6.2971    -3.2218 C.ar   1 <0>      -0.0900
29 C29      12.0378     5.6198    -2.8470 C.ar   1 <0>      -0.1600
30 C30       9.5590     3.2195    -4.3371 C.3    1 <0>       0.1300
31 C31       8.0809     3.6232    -4.3253 C.3    1 <0>       0.0400
32 C32       1.1649     3.5268     0.0552 C.ar   1 <0>      -0.1100
33 C33       1.1936     2.1345     0.0387 C.ar   1 <0>      -0.0100
34 H34      -2.1523     1.5587     0.0925 H      1 <0>       0.1400
35 H35      -2.2042     3.9941     0.1315 H      1 <0>       0.1300
36 H36      -0.4539     6.2582     0.1297 H      1 <0>       0.4200
37 H37       2.0514     6.7123     0.0851 H      1 <0>       0.1700
38 H38       4.1927     5.2102     0.4534 H      1 <0>       0.0700
39 H39       3.9389     3.4536     0.5874 H      1 <0>       0.0700
40 H40       3.6434     3.3087    -1.8703 H      1 <0>       0.0700
41 H41       3.8973     5.0654    -2.0043 H      1 <0>       0.0600
42 H42       6.1634     4.8122    -1.0300 H      1 <0>       0.0700
43 H43       5.9095     3.0556    -0.8960 H      1 <0>       0.0700
44 H44       5.6141     2.9108    -3.3537 H      1 <0>       0.0800
45 H45       5.8679     4.6674    -3.4877 H      1 <0>       0.0300
46 H46       8.1577     5.5254    -2.4913 H      1 <0>       0.0400
47 H47       7.8257     4.4894    -1.0819 H      1 <0>       0.0900
48 H48      10.2872     4.9269    -1.4510 H      1 <0>       0.0900
49 H49       9.8618     3.1955    -1.4943 H      1 <0>       0.0700
50 H50      11.5177     3.8696    -5.6929 H      1 <0>       0.1400
51 H51      13.5519     5.0599    -6.3653 H      1 <0>       0.1400
52 H52      17.0055     8.2618    -5.0246 H      1 <0>       0.4100
53 H53      17.8068     9.3387    -4.0143 H      1 <0>       0.4100
54 H54      13.9654     7.6571    -1.5573 H      1 <0>       0.1700
55 H55      11.6091     5.7760    -1.8682 H      1 <0>       0.1300
56 H56       9.9728     3.3736    -5.3337 H      1 <0>       0.0900
57 H57       9.6544     2.1706    -4.0563 H      1 <0>       0.0700
58 H58       7.5120     2.9397    -4.9556 H      1 <0>       0.0900
59 H59       7.9784     4.6397    -4.7054 H      1 <0>       0.0400
60 H60       2.1369     1.6090     0.0172 H      1 <0>       0.1300
@<TRIPOS>BOND
1    1    2 3
2    2    3 1
3    3   33 ar
4    3    4 ar
5    4    5 ar
6    4   34 1
7    5    6 ar
8    5   35 1
9    6   32 ar
10    6    7 1
11    7    8 1
12    7   36 1
13    8    9 2
14    8   37 1
15    9   10 1
16    9   32 1
17   10   11 1
18   10   38 1
19   10   39 1
20   11   12 1
21   11   40 1
22   11   41 1
23   12   13 1
24   12   42 1
25   12   43 1
26   13   14 1
27   13   44 1
28   13   45 1
29   14   31 1
30   14   15 1
31   15   16 1
32   15   46 1
33   15   47 1
34   16   17 1
35   16   48 1
36   16   49 1
37   17   18 1
38   17   30 1
39   18   29 ar
40   18   19 ar
41   19   20 ar
42   19   50 1
43   20   21 ar
44   20   51 1
45   21   28 ar
46   21   22 1
47   22   23 1
48   23   24 1
49   23   27 2
50   24   25 am
51   24   26 2
52   25   52 1
53   25   53 1
54   27   28 1
55   27   54 1
56   28   29 ar
57   29   55 1
58   30   31 1
59   30   56 1
60   30   57 1
61   31   58 1
62   31   59 1
63   32   33 ar
64   33   60 1
