@<TRIPOS>MOLECULE
ZINC000100032379
28   29    0    0    0
SMALL
USER_CHARGES
NO_NAME
@<TRIPOS>ATOM
1 N1       -0.0111     0.9658     0.0074 N.pl3  1 <0>      -0.7100
2 H2        0.0021    -0.0041     0.0020 H      1 <0>       0.4300
3 H3        0.8223     1.4622     0.0021 H      1 <0>       0.4600
4 C4       -1.1397     1.5972     0.0161 C.cat  1 <0>       0.5200
5 C5       -1.3151     3.1034     0.0185 C.3    1 <0>      -0.1200
6 C6       -2.6614     3.3052     0.7513 C.3    1 <0>      -0.1300
7 C7       -3.3945     1.9743     0.4895 C.3    1 <0>       0.0800
8 N8       -2.3814     1.0204     0.0189 N.pl3  1 <0>      -0.5700
9 C9       -2.6613    -0.3598    -0.3846 C.3    1 <0>       0.1300
10 C10      -2.9696    -0.3994    -1.8592 C.2    1 <0>       0.1700
11 C11      -2.1491    -1.0571    -2.7066 C.2    1 <0>      -0.1800
12 Cl12     -0.7321    -1.8637    -2.1108 Cl     1 <0>       0.0100
13 C13      -2.4608    -1.0803    -4.0883 C.2    1 <0>       0.5500
14 O14      -1.7365    -1.6671    -4.8720 O.2    1 <0>      -0.4600
15 N15      -3.5671    -0.4471    -4.5278 N.am   1 <0>      -0.6500
16 C16      -4.3676     0.2010    -3.6612 C.2    1 <0>       0.7000
17 O17      -5.3620     0.7671    -4.0724 O.2    1 <0>      -0.5100
18 N18      -4.0862     0.2265    -2.3458 N.am   1 <0>      -0.6200
19 H19      -0.5040     3.5838     0.5657 H      1 <0>       0.1400
20 H20      -1.3714     3.4853    -1.0008 H      1 <0>       0.1500
21 H21      -2.5014     3.4544     1.8191 H      1 <0>       0.1100
22 H22      -3.2134     4.1412     0.3218 H      1 <0>       0.1200
23 H23      -3.8522     1.6130     1.4104 H      1 <0>       0.1200
24 H24      -4.1568     2.1128    -0.2772 H      1 <0>       0.1000
25 H25      -1.7905    -0.9823    -0.1786 H      1 <0>       0.1300
26 H26      -3.5173    -0.7357     0.1758 H      1 <0>       0.1500
27 H27      -3.7869    -0.4583    -5.4725 H      1 <0>       0.4500
28 H28      -4.6759     0.6988    -1.7374 H      1 <0>       0.4400
@<TRIPOS>BOND
1    1    2 1
2    1    3 1
3    1    4 ar
4    4    8 ar
5    4    5 1
6    5    6 1
7    5   19 1
8    5   20 1
9    6    7 1
10    6   21 1
11    6   22 1
12    7    8 1
13    7   23 1
14    7   24 1
15    8    9 1
16    9   10 1
17    9   25 1
18    9   26 1
19   10   18 1
20   10   11 2
21   11   12 1
22   11   13 1
23   13   14 2
24   13   15 am
25   15   16 am
26   15   27 1
27   16   17 2
28   16   18 am
29   18   28 1
