@<TRIPOS>MOLECULE
ZINC000012466082
43    43    1     0     0
SMALL
USER_CHARGES
@<TRIPOS>ATOM
1      C1     -1.0831    1.3174   -0.6479 C.3      1 ZINC000012466082    0.0300
2      O2     -0.8683   -0.0908   -0.5347 O.3      1 ZINC000012466082   -0.3900
3      C3     -0.0695   -0.6430   -1.5830 C.3      1 ZINC000012466082    0.0600
4      C4      0.0940   -2.1480   -1.3609 C.3      1 ZINC000012466082   -0.1200
5      C5      0.9493   -2.7392   -2.4833 C.3      1 ZINC000012466082   -0.1100
6      C6      1.1128   -4.2442   -2.2612 C.3      1 ZINC000012466082   -0.0600
7      C7      1.9552   -4.8265   -3.3668 C.2      1 ZINC000012466082    0.1700
8      N8      2.4111   -4.0609   -4.3041 N.2      1 ZINC000012466082   -0.3200
9      O9      3.0901   -4.6248   -5.4114 O.3      1 ZINC000012466082   -0.2400
10     C10     3.5388   -3.6638   -6.3690 C.3      1 ZINC000012466082    0.0700
11     C11     4.2545   -4.3816   -7.5151 C.3      1 ZINC000012466082    0.0700
12     N12     3.2961   -5.2301   -8.2358 N.3      1 ZINC000012466082   -0.8500
13     C13     2.2601   -6.2711   -3.3798 C.ar     1 ZINC000012466082   -0.0600
14     C14     3.5225   -6.7177   -3.7747 C.ar     1 ZINC000012466082   -0.0800
15     C15     3.8006   -8.0689   -3.7847 C.ar     1 ZINC000012466082   -0.0700
16     C16     2.8317   -8.9806   -3.4049 C.ar     1 ZINC000012466082   -0.1700
17     C17     3.1428  -10.4551   -3.4187 C.3      1 ZINC000012466082    0.5100
18     F18     3.6567  -10.8350   -2.1742 F        1 ZINC000012466082   -0.1700
19     F19     1.9726  -11.1761   -3.6798 F        1 ZINC000012466082   -0.1800
20     F20     4.0877  -10.7231   -4.4149 F        1 ZINC000012466082   -0.1800
21     C21     1.5788   -8.5448   -3.0120 C.ar     1 ZINC000012466082   -0.0700
22     C22     1.2891   -7.1962   -2.9919 C.ar     1 ZINC000012466082   -0.0900
23     H23    -0.1236    1.8341   -0.6273 H        1 ZINC000012466082    0.0400
24     H24    -1.5918    1.5329   -1.5875 H        1 ZINC000012466082    0.0400
25     H25    -1.6978    1.6592    0.1848 H        1 ZINC000012466082    0.0900
26     H26    -0.5571   -0.4682   -2.5420 H        1 ZINC000012466082    0.0500
27     H27     0.9111   -0.1670   -1.5819 H        1 ZINC000012466082    0.0500
28     H28     0.5817   -2.3229   -0.4019 H        1 ZINC000012466082    0.0700
29     H29    -0.8865   -2.6241   -1.3620 H        1 ZINC000012466082    0.0700
30     H30     0.4616   -2.5643   -3.4423 H        1 ZINC000012466082    0.0700
31     H31     1.9299   -2.2632   -2.4822 H        1 ZINC000012466082    0.0700
32     H32     1.6005   -4.4190   -1.3022 H        1 ZINC000012466082    0.1000
33     H33     0.1322   -4.7202   -2.2624 H        1 ZINC000012466082    0.1000
34     H34     2.6827   -3.1154   -6.7620 H        1 ZINC000012466082    0.0700
35     H35     4.2274   -2.9677   -5.8900 H        1 ZINC000012466082    0.0600
36     H36     4.6738   -3.6445   -8.1999 H        1 ZINC000012466082    0.0900
37     H37     5.0561   -5.0004   -7.1120 H        1 ZINC000012466082    0.0400
38     H38     3.7448   -5.7154   -8.9982 H        1 ZINC000012466082    0.3400
39     H39     2.8456   -5.8798   -7.6088 H        1 ZINC000012466082    0.3500
40     H40     4.2795   -6.0071   -4.0721 H        1 ZINC000012466082    0.1400
41     H41     4.7768   -8.4158   -4.0899 H        1 ZINC000012466082    0.1400
42     H42     0.8270   -9.2618   -2.7167 H        1 ZINC000012466082    0.1400
43     H43     0.3107   -6.8572   -2.6847 H        1 ZINC000012466082    0.1400
@<TRIPOS>BOND
1     1     2     1
2     1     23    1
3     1     24    1
4     1     25    1
5     2     3     1
6     3     4     1
7     3     26    1
8     3     27    1
9     4     5     1
10    4     28    1
11    4     29    1
12    5     6     1
13    5     30    1
14    5     31    1
15    6     7     1
16    6     32    1
17    6     33    1
18    7     8     2
19    7     13    1
20    8     9     1
21    9     10    1
22    10    11    1
23    10    34    1
24    10    35    1
25    11    12    1
26    11    36    1
27    11    37    1
28    12    38    1
29    12    39    1
30    13    22    ar
31    13    14    ar
32    14    15    ar
33    14    40    1
34    15    16    ar
35    15    41    1
36    16    17    1
37    16    21    ar
38    17    18    1
39    17    19    1
40    17    20    1
41    21    22    ar
42    21    42    1
43    22    43    1
@<TRIPOS>SUBSTRUCTURE
1   ZINC000012466082 1     RESIDUE    1   A     ZIN   1
