@<TRIPOS>MOLECULE
ZINC000100009383
24    23    1     0     0
SMALL
USER_CHARGES
@<TRIPOS>ATOM
1      O1      0.0021   -0.0041    0.0020 O.2      1 ZINC000100009383   -0.4400
2      C2     -0.0143    1.2034    0.0087 C.2      1 ZINC000100009383    0.3200
3      C3      1.2804    1.9746    0.0004 C.3      1 ZINC000100009383    0.0100
4      H4      1.3211    2.6067   -0.8866 H        1 ZINC000100009383    0.1400
5      O5      2.3790    1.0609   -0.0150 O.3      1 ZINC000100009383   -0.5200
6      C6      1.3614    2.8485    1.2537 C.3      1 ZINC000100009383    0.0500
7      H7      0.5759    3.6035    1.2216 H        1 ZINC000100009383    0.1300
8      O8      1.1913    2.0331    2.4148 O.3      1 ZINC000100009383   -0.5400
9      C9      2.7273    3.5357    1.3088 C.3      1 ZINC000100009383    0.0500
10     H10     2.8212    4.2252    0.4698 H        1 ZINC000100009383    0.1100
11     O11     3.7596    2.5505    1.2334 O.3      1 ZINC000100009383   -0.5300
12     C12     2.8561    4.3099    2.6221 C.3      1 ZINC000100009383    0.0800
13     H13     2.7622    3.6204    3.4611 H        1 ZINC000100009383    0.1100
14     O14     1.8238    5.2952    2.6975 O.3      1 ZINC000100009383   -0.5400
15     C15     4.2220    4.9971    2.6772 C.3      1 ZINC000100009383    0.0400
16     O16     4.3891    5.6232    3.9508 O.3      1 ZINC000100009383   -0.5700
17     H17    -0.9568    1.7306    0.0160 H        1 ZINC000100009383    0.1000
18     H18     2.4062    0.4657    0.7467 H        1 ZINC000100009383    0.3700
19     H19     1.8569    1.3379    2.5082 H        1 ZINC000100009383    0.3700
20     H20     3.7374    1.9019    1.9503 H        1 ZINC000100009383    0.3700
21     H21     1.8460    5.9437    1.9806 H        1 ZINC000100009383    0.3700
22     H22     5.0077    4.2560    2.5307 H        1 ZINC000100009383    0.0600
23     H23     4.2817    5.7502    1.8915 H        1 ZINC000100009383    0.0500
24     H24     5.2351    6.0796    4.0568 H        1 ZINC000100009383    0.3800
@<TRIPOS>BOND
1     1     2     2
2     2     3     1
3     2     17    1
4     3     4     1
5     3     5     1
6     3     6     1
7     5     18    1
8     6     7     1
9     6     8     1
10    6     9     1
11    8     19    1
12    9     10    1
13    9     11    1
14    9     12    1
15    11    20    1
16    12    13    1
17    12    14    1
18    12    15    1
19    14    21    1
20    15    16    1
21    15    22    1
22    15    23    1
23    16    24    1
@<TRIPOS>SUBSTRUCTURE
1   ZINC000100009383 1     RESIDUE    1   A     ZIN   1
