@<TRIPOS>MOLECULE
ZINC000027428713
58    61    1     0     0
SMALL
USER_CHARGES
@<TRIPOS>ATOM
1      C1     -0.0187    1.5258    0.0104 C.3      1 ZINC000027428713   -0.1700
2      C2      0.0021   -0.0041    0.0020 C.3      1 ZINC000027428713    0.1300
3      H3     -1.0205   -0.3814    0.0098 H        1 ZINC000027428713    0.0800
4      O4      0.6709   -0.4649   -1.1737 O.3      1 ZINC000027428713   -0.3700
5      C5     -0.1936   -0.6642   -2.2939 C.3      1 ZINC000027428713    0.2600
6      H6     -1.0491   -1.2679   -1.9905 H        1 ZINC000027428713    0.1100
7      O7     -0.6500    0.6024   -2.7762 O.3      1 ZINC000027428713   -0.3800
8      C8      0.4019    1.4590   -3.2290 C.3      1 ZINC000027428713    0.0600
9      C9      1.1727    0.7615   -4.3529 C.3      1 ZINC000027428713    0.0100
10     N10     1.6778   -0.5302   -3.8654 N.3      1 ZINC000027428713   -0.5000
11     C11     2.4732   -1.2081   -4.8978 C.3      1 ZINC000027428713    0.1200
12     C12     1.5812   -1.5846   -6.0526 C.2      1 ZINC000027428713    0.2500
13     N13     0.3119   -1.3458   -6.1327 N.2      1 ZINC000027428713   -0.2800
14     N14    -0.1507   -1.8505   -7.3558 N.am     1 ZINC000027428713   -0.5500
15     C15     0.9073   -2.3971   -7.9904 C.2      1 ZINC000027428713    0.6500
16     O16     0.8936   -2.9357   -9.0829 O.2      1 ZINC000027428713   -0.5500
17     N17     1.9834   -2.2324   -7.1951 N.am     1 ZINC000027428713   -0.6500
18     C18     0.5708   -1.3843   -3.4079 C.3      1 ZINC000027428713    0.0900
19     H19    -0.1029   -1.5843   -4.2411 H        1 ZINC000027428713    0.1100
20     C20     1.1223   -2.6849   -2.8832 C.ar     1 ZINC000027428713   -0.1000
21     C21     2.2774   -2.6889   -2.1236 C.ar     1 ZINC000027428713   -0.0400
22     C22     2.7841   -3.8810   -1.6419 C.ar     1 ZINC000027428713   -0.1600
23     C23     2.1342   -5.0715   -1.9199 C.ar     1 ZINC000027428713    0.1100
24     F24     2.6284   -6.2375   -1.4492 F        1 ZINC000027428713   -0.1400
25     C25     0.9772   -5.0662   -2.6805 C.ar     1 ZINC000027428713   -0.1600
26     C26     0.4697   -3.8724   -3.1571 C.ar     1 ZINC000027428713   -0.0800
27     C27     0.7309   -0.5033    1.2229 C.ar     1 ZINC000027428713   -0.0800
28     C28     2.1131   -0.5138    1.2466 C.ar     1 ZINC000027428713   -0.0100
29     C29     2.7816   -0.9717    2.3665 C.ar     1 ZINC000027428713   -0.1900
30     C30     4.2884   -0.9836    2.3922 C.3      1 ZINC000027428713    0.5100
31     F31     4.7558    0.2338    2.8988 F        1 ZINC000027428713   -0.1700
32     F32     4.7326   -2.0296    3.2082 F        1 ZINC000027428713   -0.1700
33     F33     4.7755   -1.1661    1.0935 F        1 ZINC000027428713   -0.1700
34     C34     2.0681   -1.4183    3.4631 C.ar     1 ZINC000027428713   -0.0200
35     C35     0.6860   -1.4074    3.4395 C.ar     1 ZINC000027428713   -0.1800
36     C36    -0.0918   -1.8947    4.6347 C.3      1 ZINC000027428713    0.5100
37     F37     0.7971   -2.3037    5.6345 F        1 ZINC000027428713   -0.1700
38     F38    -0.8964   -0.8588    5.1214 F        1 ZINC000027428713   -0.1700
39     F39    -0.8984   -2.9738    4.2578 F        1 ZINC000027428713   -0.1700
40     C40     0.0174   -0.9454    2.3212 C.ar     1 ZINC000027428713   -0.0300
41     H41     1.0039    1.9031    0.0027 H        1 ZINC000027428713    0.0700
42     H42    -0.5459    1.8868   -0.8726 H        1 ZINC000027428713    0.0800
43     H43    -0.5289    1.8773    0.9072 H        1 ZINC000027428713    0.0700
44     H44    -0.0228    2.3907   -3.6027 H        1 ZINC000027428713    0.1000
45     H45     1.0787    1.6728   -2.4018 H        1 ZINC000027428713    0.0700
46     H46     0.5087    0.5959   -5.2013 H        1 ZINC000027428713    0.0700
47     H47     2.0105    1.3866   -4.6621 H        1 ZINC000027428713    0.0900
48     H48     3.2589   -0.5390   -5.2487 H        1 ZINC000027428713    0.1200
49     H49     2.9229   -2.1077   -4.4777 H        1 ZINC000027428713    0.1200
50     H50    -1.0625   -1.8138   -7.6849 H        1 ZINC000027428713    0.4600
51     H51     2.8861   -2.5269   -7.3930 H        1 ZINC000027428713    0.4400
52     H52     2.7841   -1.7601   -1.9068 H        1 ZINC000027428713    0.1500
53     H53     3.6868   -3.8840   -1.0490 H        1 ZINC000027428713    0.1400
54     H54     0.4696   -5.9943   -2.8983 H        1 ZINC000027428713    0.1300
55     H55    -0.4330   -3.8679   -3.7500 H        1 ZINC000027428713    0.1300
56     H56     2.6705   -0.1645    0.3901 H        1 ZINC000027428713    0.1500
57     H57     2.5905   -1.7760    4.3380 H        1 ZINC000027428713    0.1500
58     H58    -1.0624   -0.9369    2.3028 H        1 ZINC000027428713    0.1400
@<TRIPOS>BOND
1     1     2     1
2     1     41    1
3     1     42    1
4     1     43    1
5     2     3     1
6     2     4     1
7     2     27    1
8     4     5     1
9     5     6     1
10    5     18    1
11    5     7     1
12    7     8     1
13    8     9     1
14    8     44    1
15    8     45    1
16    9     10    1
17    9     46    1
18    9     47    1
19    10    11    1
20    10    18    1
21    11    12    1
22    11    48    1
23    11    49    1
24    12    17    1
25    12    13    2
26    13    14    1
27    14    15    am
28    14    50    1
29    15    16    2
30    15    17    am
31    17    51    1
32    18    19    1
33    18    20    1
34    20    26    ar
35    20    21    ar
36    21    22    ar
37    21    52    1
38    22    23    ar
39    22    53    1
40    23    24    1
41    23    25    ar
42    25    26    ar
43    25    54    1
44    26    55    1
45    27    40    ar
46    27    28    ar
47    28    29    ar
48    28    56    1
49    29    30    1
50    29    34    ar
51    30    31    1
52    30    32    1
53    30    33    1
54    34    35    ar
55    34    57    1
56    35    36    1
57    35    40    ar
58    36    37    1
59    36    38    1
60    36    39    1
61    40    58    1
@<TRIPOS>SUBSTRUCTURE
1   ZINC000027428713 1     RESIDUE    1   A     ZIN   1
