@<TRIPOS>MOLECULE
ZINC000004658603
9    8    0    0    0
SMALL
USER_CHARGES
NO_NAME
@<TRIPOS>ATOM
1 C1       -0.0184     1.5028     0.0103 C.3    1 <0>      -0.1700
2 C2        0.0021    -0.0041     0.0020 C.2    1 <0>       0.4500
3 O3        0.0203    -0.6160     1.0489 O.2    1 <0>      -0.6100
4 N4        0.0001    -0.6716    -1.1688 N.am   1 <0>      -0.5400
5 O5        0.0193    -2.0875    -1.1766 O.3    1 <0>      -0.6900
6 H6        1.0042     1.8801     0.0026 H      1 <0>       0.0700
7 H7       -0.5455     1.8639    -0.8728 H      1 <0>       0.0600
8 H8       -0.5286     1.8543     0.9071 H      1 <0>       0.0700
9 H9       -0.0145    -0.1822    -2.0061 H      1 <0>       0.3600
@<TRIPOS>BOND
1    1    2 1
2    1    6 1
3    1    7 1
4    1    8 1
5    2    3 2
6    2    4 am
7    4    5 1
8    4    9 1
