@<TRIPOS>MOLECULE
ZINC000100005670
21    22    1     0     0
SMALL
USER_CHARGES
@<TRIPOS>ATOM
1      C1     -0.0178    1.4608    0.0101 C.3      1 ZINC000100005670    0.0600
2      N2      0.0021   -0.0041    0.0020 N.am     1 ZINC000100005670   -0.5200
3      C3     -1.1851   -0.7000    0.0039 C.2      1 ZINC000100005670    0.3000
4      C4     -1.1559   -2.0891   -0.0043 C.2      1 ZINC000100005670   -0.0900
5      N5     -2.4404   -2.5215   -0.0004 N.2      1 ZINC000100005670   -0.3600
6      C6     -3.2366   -1.4906    0.0095 C.2      1 ZINC000100005670    0.2100
7      Br7    -5.1259   -1.5712    0.0194 Br       1 ZINC000100005670    0.1000
8      N8     -2.4971   -0.3432    0.0125 N.pl3    1 ZINC000100005670   -0.5400
9      C9      0.1469   -2.7561   -0.0146 C.2      1 ZINC000100005670    0.6000
10     O10     0.2240   -3.9711   -0.0224 O.2      1 ZINC000100005670   -0.4700
11     N11     1.2615   -1.9933   -0.0157 N.am     1 ZINC000100005670   -0.5500
12     C12     2.5774   -2.6371   -0.0259 C.3      1 ZINC000100005670    0.0800
13     C13     1.1801   -0.6523   -0.0127 C.2      1 ZINC000100005670    0.7200
14     O14     2.2077   -0.0021   -0.0139 O.2      1 ZINC000100005670   -0.5200
15     H15     1.0048    1.8381    0.0023 H        1 ZINC000100005670    0.1200
16     H16    -0.5450    1.8219   -0.8730 H        1 ZINC000100005670    0.0800
17     H17    -0.5280    1.8123    0.9069 H        1 ZINC000100005670    0.0800
18     H18    -2.8446    0.5624    0.0197 H        1 ZINC000100005670    0.4400
19     H19     2.4521   -3.7199   -0.0316 H        1 ZINC000100005670    0.1100
20     H20     3.1251   -2.3301   -0.9169 H        1 ZINC000100005670    0.0800
21     H21     3.1340   -2.3404    0.8630 H        1 ZINC000100005670    0.0800
@<TRIPOS>BOND
1     1     2     1
2     1     15    1
3     1     16    1
4     1     17    1
5     2     13    am
6     2     3     1
7     3     8     1
8     3     4     2
9     4     5     1
10    4     9     1
11    5     6     2
12    6     7     1
13    6     8     1
14    8     18    1
15    9     10    2
16    9     11    am
17    11    12    1
18    11    13    am
19    12    19    1
20    12    20    1
21    12    21    1
22    13    14    2
@<TRIPOS>SUBSTRUCTURE
1   ZINC000100005670 1     RESIDUE    1   A     ZIN   1
