@<TRIPOS>MOLECULE
ZINC000001482197
22   23    0    0    0
SMALL
USER_CHARGES
NO_NAME
@<TRIPOS>ATOM
1 N1       -0.0116     1.0048     0.0076 N.4    1 <0>      -0.6100
2 H2        0.0021    -0.0041     0.0020 H      1 <0>       0.4400
3 H3        0.9350     1.3541     0.0004 H      1 <0>       0.4300
4 H4       -0.4996     1.3391    -0.8099 H      1 <0>       0.4400
5 C5       -0.6992     1.4786     1.2162 C.3    1 <0>      -0.0800
6 H6       -1.7844     1.5496     1.1424 H      1 <0>       0.1800
7 C7        0.0201     2.5200     2.0758 C.3    1 <0>      -0.1500
8 C8       -0.1079     1.0765     2.5688 C.3    1 <0>      -0.0700
9 H9        0.7915     0.4608     2.5620 H      1 <0>       0.1400
10 C10      -1.0699     0.8095     3.6977 C.ar   1 <0>      -0.0900
11 C11      -1.9279     1.8056     4.1248 C.ar   1 <0>      -0.1100
12 C12      -2.8104     1.5606     5.1603 C.ar   1 <0>      -0.1100
13 C13      -2.8350     0.3194     5.7683 C.ar   1 <0>      -0.1000
14 C14      -1.9776    -0.6769     5.3406 C.ar   1 <0>      -0.1100
15 C15      -1.0982    -0.4333     4.3023 C.ar   1 <0>      -0.1000
16 H16       1.0035     2.8537     1.7445 H      1 <0>       0.1300
17 H17      -0.5919     3.2759     2.5678 H      1 <0>       0.1400
18 H18      -1.9087     2.7753     3.6497 H      1 <0>       0.1200
19 H19      -3.4802     2.3391     5.4944 H      1 <0>       0.1300
20 H20      -3.5240     0.1283     6.5778 H      1 <0>       0.1300
21 H21      -1.9967    -1.6466     5.8159 H      1 <0>       0.1300
22 H22      -0.4283    -1.2118     3.9681 H      1 <0>       0.1300
@<TRIPOS>BOND
1    1    2 1
2    1    3 1
3    1    4 1
4    1    5 1
5    5    6 1
6    5    8 1
7    5    7 1
8    7    8 1
9    7   16 1
10    7   17 1
11    8    9 1
12    8   10 1
13   10   15 ar
14   10   11 ar
15   11   12 ar
16   11   18 1
17   12   13 ar
18   12   19 1
19   13   14 ar
20   13   20 1
21   14   15 ar
22   14   21 1
23   15   22 1
