@<TRIPOS>MOLECULE
ZINC000001850376
46   48    0    0    0
SMALL
USER_CHARGES
NO_NAME
@<TRIPOS>ATOM
1 C1       -0.1337    -1.3404    -0.6902 C.3    1 <0>      -0.1100
2 C2        0.2104    -2.7946    -0.3622 C.3    1 <0>      -0.0600
3 C3       -0.8170    -3.8341    -0.8151 C.3    1 <0>      -0.1200
4 C4        1.6861    -3.1969    -0.3985 C.3    1 <0>      -0.1000
5 H5        1.9253    -4.2022    -0.7452 H      1 <0>       0.1400
6 C6        2.6894    -2.1305    -0.7550 C.2    1 <0>      -0.0900
7 C7        3.4602    -2.2797    -1.8078 C.2    1 <0>      -0.0300
8 Cl8       3.3233    -3.7054    -2.7888 Cl     1 <0>      -0.0300
9 Cl9       4.6160    -1.0512    -2.2185 Cl     1 <0>      -0.0300
10 C10       0.9616    -3.0659     0.9427 C.3    1 <0>      -0.1500
11 H11       0.7242    -3.9850     1.4784 H      1 <0>       0.1400
12 C12       1.3064    -1.8804     1.8069 C.2    1 <0>       0.4900
13 O13       0.9904    -0.7672     1.4595 O.2    1 <0>      -0.5000
14 O14       1.9647    -2.0612     2.9627 O.3    1 <0>      -0.3400
15 C15       2.2635    -0.8743     3.7438 C.3    1 <0>       0.1100
16 C16       2.9999    -1.2703     4.9976 C.ar   1 <0>      -0.0600
17 C17       2.2936    -1.5737     6.1467 C.ar   1 <0>      -0.1300
18 C18       2.9663    -1.9375     7.2989 C.ar   1 <0>      -0.0800
19 C19       4.3460    -1.9989     7.3043 C.ar   1 <0>      -0.1300
20 C20       5.0574    -1.6952     6.1521 C.ar   1 <0>       0.1200
21 O21       6.4149    -1.7554     6.1546 O.3    1 <0>      -0.2600
22 C22       7.0696    -1.4401     5.0063 C.ar   1 <0>       0.0800
23 C23       7.4542    -0.1293     4.7630 C.ar   1 <0>      -0.1300
24 C24       8.1195     0.1885     3.5949 C.ar   1 <0>      -0.1100
25 C25       8.4019    -0.7982     2.6683 C.ar   1 <0>      -0.1100
26 C26       8.0194    -2.1051     2.9081 C.ar   1 <0>      -0.1100
27 C27       7.3597    -2.4295     4.0776 C.ar   1 <0>      -0.1200
28 C28       4.3799    -1.3353     4.9961 C.ar   1 <0>      -0.1700
29 H29       0.7842    -0.7566    -0.7596 H      1 <0>       0.0700
30 H30      -0.6640    -1.2981    -1.6416 H      1 <0>       0.0600
31 H31      -0.7664    -0.9303     0.0970 H      1 <0>       0.0700
32 H32      -1.2695    -3.5129    -1.7533 H      1 <0>       0.0700
33 H33      -0.3224    -4.7945    -0.9604 H      1 <0>       0.0600
34 H34      -1.5910    -3.9354    -0.0543 H      1 <0>       0.0700
35 H35       2.7746    -1.2435    -0.1447 H      1 <0>       0.1500
36 H36       2.8848    -0.1990     3.1555 H      1 <0>       0.0800
37 H37       1.3339    -0.3721     4.0117 H      1 <0>       0.0800
38 H38       1.2146    -1.5263     6.1446 H      1 <0>       0.1300
39 H39       2.4122    -2.1734     8.1955 H      1 <0>       0.1400
40 H40       4.8709    -2.2827     8.2045 H      1 <0>       0.1400
41 H41       7.2332     0.6418     5.4861 H      1 <0>       0.1300
42 H42       8.4191     1.2086     3.4050 H      1 <0>       0.1300
43 H43       8.9219    -0.5476     1.7555 H      1 <0>       0.1300
44 H44       8.2408    -2.8739     2.1826 H      1 <0>       0.1300
45 H45       7.0611    -3.4504     4.2645 H      1 <0>       0.1300
46 H46       4.9312    -1.0988     4.0980 H      1 <0>       0.1300
@<TRIPOS>BOND
1    1    2 1
2    1   29 1
3    1   30 1
4    1   31 1
5    2   10 1
6    2    3 1
7    2    4 1
8    3   32 1
9    3   33 1
10    3   34 1
11    4    5 1
12    4    6 1
13    4   10 1
14    6    7 2
15    6   35 1
16    7    8 1
17    7    9 1
18   10   11 1
19   10   12 1
20   12   13 2
21   12   14 1
22   14   15 1
23   15   16 1
24   15   36 1
25   15   37 1
26   16   28 ar
27   16   17 ar
28   17   18 ar
29   17   38 1
30   18   19 ar
31   18   39 1
32   19   20 ar
33   19   40 1
34   20   21 1
35   20   28 ar
36   21   22 1
37   22   27 ar
38   22   23 ar
39   23   24 ar
40   23   41 1
41   24   25 ar
42   24   42 1
43   25   26 ar
44   25   43 1
45   26   27 ar
46   26   44 1
47   27   45 1
48   28   46 1
