@<TRIPOS>MOLECULE
ZINC000000403079
36    36    1     0     0
SMALL
USER_CHARGES
@<TRIPOS>ATOM
1      C1     -0.0173    1.4248    0.0099 C.3      1 ZINC000000403079    0.0300
2      O2      0.0021   -0.0041    0.0020 O.3      1 ZINC000000403079   -0.3200
3      C3      0.6262   -0.6187    1.0421 C.ar     1 ZINC000000403079    0.1000
4      C4      1.2021    0.1389    2.0508 C.ar     1 ZINC000000403079   -0.1600
5      C5      1.8361   -0.4856    3.1075 C.ar     1 ZINC000000403079   -0.1600
6      C6      1.8967   -1.8701    3.1595 C.ar     1 ZINC000000403079    0.1000
7      O7      2.5209   -2.4847    4.1996 O.3      1 ZINC000000403079   -0.3200
8      C8      3.0918   -1.6425    5.2029 C.3      1 ZINC000000403079    0.0300
9      C9      1.3203   -2.6279    2.1507 C.ar     1 ZINC000000403079   -0.1100
10     C10     1.3853   -4.1324    2.2077 C.3      1 ZINC000000403079    0.1500
11     H11     1.3176   -4.4600    3.2451 H        1 ZINC000000403079    0.1200
12     O12     0.2986   -4.6847    1.4620 O.3      1 ZINC000000403079   -0.5500
13     C13     2.7097   -4.6088    1.6078 C.3      1 ZINC000000403079    0.1000
14     N14     2.7729   -6.0714    1.6632 N.am     1 ZINC000000403079   -0.7300
15     C15     3.8558   -6.7176    1.1877 C.2      1 ZINC000000403079    0.5100
16     O16     4.7780   -6.0883    0.7139 O.2      1 ZINC000000403079   -0.5300
17     C17     3.9208   -8.2221    1.2447 C.3      1 ZINC000000403079    0.0400
18     N18     5.1924   -8.6795    0.6687 N.3      1 ZINC000000403079   -0.8400
19     C19     0.6819   -2.0037    1.0970 C.ar     1 ZINC000000403079   -0.1000
20     H20     1.0053    1.8021    0.0021 H        1 ZINC000000403079    0.0600
21     H21    -0.5445    1.7859   -0.8732 H        1 ZINC000000403079    0.1000
22     H22    -0.5275    1.7763    0.9067 H        1 ZINC000000403079    0.0600
23     H23     1.1552    1.2171    2.0101 H        1 ZINC000000403079    0.1300
24     H24     2.2849    0.1044    3.8929 H        1 ZINC000000403079    0.1300
25     H25     3.5571   -2.2583    5.9726 H        1 ZINC000000403079    0.1000
26     H26     3.8441   -0.9967    4.7502 H        1 ZINC000000403079    0.0600
27     H27     2.3095   -1.0300    5.6514 H        1 ZINC000000403079    0.0600
28     H28     0.2952   -4.4345    0.5279 H        1 ZINC000000403079    0.3800
29     H29     2.7774   -4.2812    0.5704 H        1 ZINC000000403079    0.0700
30     H30     3.5386   -4.1875    2.1766 H        1 ZINC000000403079    0.0800
31     H31     2.0353   -6.5747    2.0422 H        1 ZINC000000403079    0.4100
32     H32     3.8532   -8.5497    2.2821 H        1 ZINC000000403079    0.0600
33     H33     3.0919   -8.6434    0.6759 H        1 ZINC000000403079    0.1000
34     H34     5.9766   -8.2517    1.1380 H        1 ZINC000000403079    0.3500
35     H35     5.2602   -9.6859    0.6953 H        1 ZINC000000403079    0.3500
36     H36     0.2328   -2.5938    0.3118 H        1 ZINC000000403079    0.1400
@<TRIPOS>BOND
1     1     2     1
2     1     20    1
3     1     21    1
4     1     22    1
5     2     3     1
6     3     19    ar
7     3     4     ar
8     4     5     ar
9     4     23    1
10    5     6     ar
11    5     24    1
12    6     7     1
13    6     9     ar
14    7     8     1
15    8     25    1
16    8     26    1
17    8     27    1
18    9     10    1
19    9     19    ar
20    10    11    1
21    10    12    1
22    10    13    1
23    12    28    1
24    13    14    1
25    13    29    1
26    13    30    1
27    14    15    am
28    14    31    1
29    15    16    2
30    15    17    1
31    17    18    1
32    17    32    1
33    17    33    1
34    18    34    1
35    18    35    1
36    19    36    1
@<TRIPOS>SUBSTRUCTURE
1   ZINC000000403079 1     RESIDUE    1   A     ZIN   1
