@<TRIPOS>MOLECULE
ZINC000003872277
21   22    0    0    0
SMALL
USER_CHARGES
NO_NAME
@<TRIPOS>ATOM
1 C1       -0.0184     1.5028     0.0103 C.3    1 <0>      -0.1300
2 C2        0.0021    -0.0041     0.0020 C.2    1 <0>       0.5200
3 N3        0.0043    -0.5815    -1.1437 N.am   1 <0>      -0.9200
4 S4        0.0201    -2.2354    -1.2655 S.o2   1 <0>       2.6300
5 O5       -1.0563    -2.5901    -2.1226 O.2    1 <0>      -0.9400
6 O6        1.3687    -2.6121    -1.5080 O.2    1 <0>      -0.9500
7 C7       -0.3926    -2.8400     0.3395 C.ar   1 <0>      -0.7000
8 C8       -0.7466    -4.1560     0.5305 C.ar   1 <0>       0.0200
9 C9       -1.0678    -4.6044     1.8019 C.ar   1 <0>      -0.0700
10 Cl10     -1.5152    -6.2633     2.0500 Cl     1 <0>      -0.0500
11 C11      -1.0322    -3.7297     2.8733 C.ar   1 <0>      -0.0300
12 C12      -0.6758    -2.4088     2.6837 C.ar   1 <0>      -0.1400
13 C13      -0.3518    -1.9544     1.4116 C.ar   1 <0>       0.2200
14 N14       0.0220    -0.6272     1.2058 N.pl3  1 <0>      -0.6700
15 H15       1.0042     1.8801     0.0026 H      1 <0>       0.1100
16 H16      -0.5455     1.8639    -0.8728 H      1 <0>       0.1200
17 H17      -0.5286     1.8543     0.9071 H      1 <0>       0.0900
18 H18      -0.7744    -4.8369    -0.3074 H      1 <0>       0.1500
19 H19      -1.2841    -4.0816     3.8628 H      1 <0>       0.1500
20 H20      -0.6497    -1.7299     3.5232 H      1 <0>       0.1500
21 H21       0.3128    -0.1152     1.9765 H      1 <0>       0.4300
@<TRIPOS>BOND
1    1    2 1
2    1   15 1
3    1   16 1
4    1   17 1
5    2   14 1
6    2    3 2
7    3    4 am
8    4    5 2
9    4    6 2
10    4    7 1
11    7   13 ar
12    7    8 ar
13    8    9 ar
14    8   18 1
15    9   10 1
16    9   11 ar
17   11   12 ar
18   11   19 1
19   12   13 ar
20   12   20 1
21   13   14 1
22   14   21 1
