@<TRIPOS>MOLECULE
ZINC000003808779
51   53    0    0    0
SMALL
USER_CHARGES
NO_NAME
@<TRIPOS>ATOM
1 C1       -0.0350     1.6122     2.0980 C.3    1 <0>      -0.1900
2 C2       -0.0659     0.0871     1.9788 C.3    1 <0>       0.1300
3 H3        0.7609    -0.2451     1.3510 H      1 <0>       0.1100
4 O4        0.0587    -0.4948     3.2779 O.3    1 <0>      -0.5500
5 C5       -1.3909    -0.3485     1.3497 C.3    1 <0>      -0.2000
6 H6       -2.2585     0.0952     1.8380 H      1 <0>       0.1400
7 C7       -1.4156    -0.2310    -0.1603 C.2    1 <0>       0.5200
8 O8       -1.3210     0.6963    -0.9368 O.2    1 <0>      -0.4100
9 N9       -1.5854    -1.5751    -0.3045 N.am   1 <0>      -0.4800
10 C10      -2.8175    -2.0411    -0.7933 C.2    1 <0>       0.1700
11 C11      -3.1859    -1.9922    -2.1534 C.2    1 <0>       0.4400
12 O12      -4.3294    -2.5475    -2.5545 O.co2  1 <0>      -0.6600
13 O13      -2.3908    -1.3906    -3.0381 O.co2  1 <0>      -0.6500
14 C14      -3.6108    -2.5408     0.1779 C.2    1 <0>      -0.2400
15 S15      -5.2310    -3.1929    -0.0553 S.3    1 <0>       0.0600
16 C16      -4.9402    -4.9233     0.3890 C.3    1 <0>      -0.1400
17 H17      -4.3669    -4.9960     1.3132 H      1 <0>       0.1200
18 C18      -4.2342    -5.6808    -0.7631 C.3    1 <0>       0.0000
19 N19      -4.6002    -7.0991    -0.5625 N.4    1 <0>      -0.5000
20 H20      -4.7236    -7.5478    -1.4577 H      1 <0>       0.4400
21 H21      -3.8720    -7.5677    -0.0445 H      1 <0>       0.4300
22 C22      -5.8616    -7.1553     0.1989 C.3    1 <0>       0.0100
23 H23      -5.7081    -7.6986     1.1313 H      1 <0>       0.1600
24 C24      -6.9259    -7.8367    -0.6220 C.2    1 <0>       0.5000
25 O25      -6.7930    -7.9384    -1.8232 O.2    1 <0>      -0.5200
26 N26      -8.0255    -8.3332    -0.0212 N.am   1 <0>      -0.6000
27 C27      -9.0602    -8.9957    -0.8192 C.3    1 <0>       0.0800
28 C28      -8.1861    -8.2104     1.4297 C.3    1 <0>       0.0600
29 C29      -6.2782    -5.7003     0.5024 C.3    1 <0>      -0.1000
30 C30      -2.8807    -2.4493     1.4980 C.3    1 <0>      -0.0500
31 H31      -2.7694    -3.4395     1.9400 H      1 <0>       0.0900
32 C32      -3.6267    -1.5192     2.4567 C.3    1 <0>      -0.1500
33 C33      -1.5070    -1.8646     1.1446 C.3    1 <0>       0.0700
34 H34      -0.6576    -2.4642     1.4718 H      1 <0>       0.1400
35 H35       0.9089     1.9225     2.5461 H      1 <0>       0.0700
36 H36      -0.1301     2.0561     1.1070 H      1 <0>       0.0800
37 H37      -0.8618     1.9444     2.7257 H      1 <0>       0.0600
38 H38      -0.6450    -0.2422     3.8912 H      1 <0>       0.3800
39 H39      -4.5977    -5.3279    -1.7282 H      1 <0>       0.1600
40 H40      -3.1537    -5.5544    -0.6943 H      1 <0>       0.1400
41 H41      -8.8395   -10.0609    -0.8881 H      1 <0>       0.0700
42 H42     -10.0310    -8.8558    -0.3437 H      1 <0>       0.0800
43 H43      -9.0799    -8.5633    -1.8196 H      1 <0>       0.0900
44 H44      -7.3228    -7.6931     1.8483 H      1 <0>       0.0800
45 H45      -9.0908    -7.6432     1.6485 H      1 <0>       0.0800
46 H46      -8.2641    -9.2036     1.8720 H      1 <0>       0.0800
47 H47      -6.6882    -5.6188     1.5091 H      1 <0>       0.1300
48 H48      -6.9949    -5.3424    -0.2368 H      1 <0>       0.1100
49 H49      -4.5717    -1.9784     2.7468 H      1 <0>       0.0700
50 H50      -3.0180    -1.3486     3.3447 H      1 <0>       0.0700
51 H51      -3.8218    -0.5678     1.9618 H      1 <0>       0.0600
@<TRIPOS>BOND
1    1    2 1
2    1   35 1
3    1   36 1
4    1   37 1
5    2    3 1
6    2    4 1
7    2    5 1
8    4   38 1
9    5    6 1
10    5   33 1
11    5    7 1
12    7    8 2
13    7    9 am
14    9   33 1
15    9   10 1
16   10   11 1
17   10   14 2
18   11   12 ar
19   11   13 ar
20   14   15 1
21   14   30 1
22   15   16 1
23   16   17 1
24   16   29 1
25   16   18 1
26   18   19 1
27   18   39 1
28   18   40 1
29   19   20 1
30   19   21 1
31   19   22 1
32   22   23 1
33   22   24 1
34   22   29 1
35   24   25 2
36   24   26 am
37   26   27 1
38   26   28 1
39   27   41 1
40   27   42 1
41   27   43 1
42   28   44 1
43   28   45 1
44   28   46 1
45   29   47 1
46   29   48 1
47   30   31 1
48   30   32 1
49   30   33 1
50   32   49 1
51   32   50 1
52   32   51 1
53   33   34 1
