@<TRIPOS>MOLECULE
ZINC000019796080
51   54    0    0    0
SMALL
USER_CHARGES
NO_NAME
@<TRIPOS>ATOM
1 O1        0.0167    -0.0171    -0.1694 O.2    1 <0>      -0.4500
2 C2       -0.0066     1.1944    -0.1203 C.2    1 <0>       0.4000
3 C3        1.2836     1.9713    -0.0671 C.3    1 <0>      -0.1600
4 C4        2.4653     0.9995    -0.0872 C.3    1 <0>      -0.1400
5 C5        3.7752     1.7883    -0.0333 C.3    1 <0>      -0.0100
6 N6        4.9097     0.8553    -0.0526 N.4    1 <0>      -0.3900
7 H7        4.8371     0.2519    -0.8581 H      1 <0>       0.4300
8 C8        4.9000     0.0447     1.1708 C.3    1 <0>       0.0500
9 C9        6.1497    -0.7824     1.2611 C.2    1 <0>      -0.2500
10 C10       7.2297    -0.5212     0.5702 C.2    1 <0>       0.1400
11 N11       8.3429    -1.3455     0.7277 N.am   1 <0>      -0.4800
12 C12       8.4727    -2.3290     1.6380 C.2    1 <0>       0.6900
13 O13       7.6295    -2.6403     2.4582 O.2    1 <0>      -0.5300
14 N14       9.6766    -2.9164     1.5028 N.am   1 <0>      -0.6400
15 C15      10.3573    -2.2890     0.4619 C.ar   1 <0>       0.1000
16 C16      11.6083    -2.4749    -0.1053 C.ar   1 <0>      -0.1000
17 C17      12.0133    -1.6733    -1.1552 C.ar   1 <0>      -0.0900
18 C18      11.1755    -0.6854    -1.6425 C.ar   1 <0>      -0.1000
19 C19       9.9271    -0.4923    -1.0834 C.ar   1 <0>      -0.1100
20 C20       9.5092    -1.2961    -0.0343 C.ar   1 <0>       0.0600
21 C21       7.3147     0.6348    -0.3880 C.3    1 <0>      -0.1200
22 C22       6.1695     1.6130    -0.1168 C.3    1 <0>       0.0100
23 C23      -1.2933     1.9054    -0.1187 C.ar   1 <0>      -0.2000
24 C24      -1.3236     3.3036    -0.0679 C.ar   1 <0>      -0.0400
25 C25      -2.5326     3.9637    -0.0666 C.ar   1 <0>      -0.1700
26 C26      -3.7184     3.2455    -0.1152 C.ar   1 <0>       0.1400
27 F27      -4.9009     3.8989    -0.1132 F      1 <0>      -0.1300
28 C28      -3.6955     1.8594    -0.1661 C.ar   1 <0>      -0.1600
29 C29      -2.4932     1.1873    -0.1738 C.ar   1 <0>      -0.0300
30 H30       1.3441     2.6347    -0.9299 H      1 <0>       0.1100
31 H31       1.3146     2.5620     0.8484 H      1 <0>       0.1100
32 H32       2.4048     0.3361     0.7755 H      1 <0>       0.1000
33 H33       2.4343     0.4088    -1.0027 H      1 <0>       0.1000
34 H34       3.8356     2.4517    -0.8960 H      1 <0>       0.1400
35 H35       3.8061     2.3790     0.8822 H      1 <0>       0.1300
36 H36       4.8392     0.7020     2.0382 H      1 <0>       0.1400
37 H37       4.0317    -0.6141     1.1598 H      1 <0>       0.1400
38 H38       6.1578    -1.6321     1.9277 H      1 <0>       0.1900
39 H39      10.0129    -3.6513     2.0392 H      1 <0>       0.4400
40 H40      12.2650    -3.2443     0.2728 H      1 <0>       0.1400
41 H41      12.9880    -1.8180    -1.5972 H      1 <0>       0.1400
42 H42      11.4992    -0.0624    -2.4633 H      1 <0>       0.1400
43 H43       9.2763     0.2801    -1.4658 H      1 <0>       0.1300
44 H44       8.2683     1.1461    -0.2563 H      1 <0>       0.1300
45 H45       7.2396     0.2650    -1.4106 H      1 <0>       0.1200
46 H46       6.1171     2.3471    -0.9208 H      1 <0>       0.1500
47 H47       6.3378     2.1190     0.8339 H      1 <0>       0.1400
48 H48      -0.4011     3.8639    -0.0294 H      1 <0>       0.1400
49 H49      -2.5574     5.0427    -0.0275 H      1 <0>       0.1500
50 H50      -4.6223     1.3062    -0.2037 H      1 <0>       0.1500
51 H51      -2.4766     0.1082    -0.2138 H      1 <0>       0.1500
@<TRIPOS>BOND
1    1    2 2
2    2    3 1
3    2   23 1
4    3    4 1
5    3   30 1
6    3   31 1
7    4    5 1
8    4   32 1
9    4   33 1
10    5    6 1
11    5   34 1
12    5   35 1
13    6    7 1
14    6   22 1
15    6    8 1
16    8    9 1
17    8   36 1
18    8   37 1
19    9   10 2
20    9   38 1
21   10   11 1
22   10   21 1
23   11   20 1
24   11   12 am
25   12   13 2
26   12   14 am
27   14   15 1
28   14   39 1
29   15   20 ar
30   15   16 ar
31   16   17 ar
32   16   40 1
33   17   18 ar
34   17   41 1
35   18   19 ar
36   18   42 1
37   19   20 ar
38   19   43 1
39   21   22 1
40   21   44 1
41   21   45 1
42   22   46 1
43   22   47 1
44   23   29 ar
45   23   24 ar
46   24   25 ar
47   24   48 1
48   25   26 ar
49   25   49 1
50   26   27 1
51   26   28 ar
52   28   29 ar
53   28   50 1
54   29   51 1
