@<TRIPOS>MOLECULE
ZINC000014881137
71    70    1     0     0
SMALL
USER_CHARGES
@<TRIPOS>ATOM
1      C1     -0.0187    1.5258    0.0104 C.3      1 ZINC000014881137   -0.1600
2      C2      0.0021   -0.0041    0.0020 C.3      1 ZINC000014881137   -0.1300
3      C3     -1.4333   -0.5336    0.0129 C.3      1 ZINC000014881137   -0.1200
4      C4     -1.4126   -2.0635    0.0045 C.3      1 ZINC000014881137   -0.1200
5      C5     -2.8479   -2.5931    0.0153 C.3      1 ZINC000014881137   -0.1200
6      C6     -2.8272   -4.1229    0.0069 C.3      1 ZINC000014881137   -0.1200
7      C7     -4.2626   -4.6525    0.0178 C.3      1 ZINC000014881137   -0.1200
8      C8     -4.2418   -6.1823    0.0094 C.3      1 ZINC000014881137   -0.1200
9      C9     -5.6772   -6.7119    0.0202 C.3      1 ZINC000014881137   -0.1500
10     C10    -5.6565   -8.2417    0.0118 C.3      1 ZINC000014881137   -0.0100
11     N11    -7.0346   -8.7502    0.0222 N.4      1 ZINC000014881137   -0.2700
12     C12    -7.7222   -8.2765    1.2309 C.3      1 ZINC000014881137   -0.0600
13     C13    -7.7451   -8.2636   -1.1679 C.3      1 ZINC000014881137   -0.0600
14     C14    -7.0147  -10.2190    0.0142 C.3      1 ZINC000014881137   -0.0100
15     C15    -8.4501  -10.7486    0.0250 C.3      1 ZINC000014881137   -0.1500
16     C16    -8.4293  -12.2785    0.0166 C.3      1 ZINC000014881137   -0.1200
17     C17    -9.8647  -12.8080    0.0275 C.3      1 ZINC000014881137   -0.1200
18     C18    -9.8440  -14.3379    0.0190 C.3      1 ZINC000014881137   -0.1200
19     C19   -11.2794  -14.8675    0.0299 C.3      1 ZINC000014881137   -0.1200
20     C20   -11.2586  -16.3973    0.0215 C.3      1 ZINC000014881137   -0.1200
21     C21   -12.6940  -16.9269    0.0323 C.3      1 ZINC000014881137   -0.1200
22     C22   -12.6732  -18.4567    0.0239 C.3      1 ZINC000014881137   -0.1300
23     C23   -14.1086  -18.9863    0.0348 C.3      1 ZINC000014881137   -0.1600
24     H24     1.0039    1.9031    0.0027 H        1 ZINC000014881137    0.0600
25     H25    -0.5459    1.8868   -0.8726 H        1 ZINC000014881137    0.0500
26     H26    -0.5289    1.8773    0.9072 H        1 ZINC000014881137    0.0500
27     H27     0.5123   -0.3556   -0.8948 H        1 ZINC000014881137    0.0600
28     H28     0.5293   -0.3651    0.8851 H        1 ZINC000014881137    0.0600
29     H29    -1.9435   -0.1821    0.9097 H        1 ZINC000014881137    0.0600
30     H30    -1.9605   -0.1726   -0.8702 H        1 ZINC000014881137    0.0600
31     H31    -0.9024   -2.4150   -0.8923 H        1 ZINC000014881137    0.0600
32     H32    -0.8854   -2.4246    0.8875 H        1 ZINC000014881137    0.0600
33     H33    -3.3581   -2.2415    0.9121 H        1 ZINC000014881137    0.0600
34     H34    -3.3751   -2.2320   -0.8677 H        1 ZINC000014881137    0.0600
35     H35    -2.3170   -4.4744   -0.8899 H        1 ZINC000014881137    0.0600
36     H36    -2.3000   -4.4840    0.8900 H        1 ZINC000014881137    0.0600
37     H37    -4.7728   -4.3010    0.9146 H        1 ZINC000014881137    0.0700
38     H38    -4.7898   -4.2914   -0.8653 H        1 ZINC000014881137    0.0700
39     H39    -3.7316   -6.5338   -0.8874 H        1 ZINC000014881137    0.0700
40     H40    -3.7146   -6.5434    0.8924 H        1 ZINC000014881137    0.0700
41     H41    -6.1874   -6.3604    0.9170 H        1 ZINC000014881137    0.0900
42     H42    -6.2044   -6.3508   -0.8628 H        1 ZINC000014881137    0.0900
43     H43    -5.1463   -8.5933   -0.8850 H        1 ZINC000014881137    0.1300
44     H44    -5.1293   -8.6028    0.8949 H        1 ZINC000014881137    0.1300
45     H45    -7.7370   -7.1866    1.2368 H        1 ZINC000014881137    0.1200
46     H46    -8.7448   -8.6537    1.2386 H        1 ZINC000014881137    0.1200
47     H47    -7.1950   -8.6375    2.1139 H        1 ZINC000014881137    0.1200
48     H48    -7.2349   -8.6151   -2.0647 H        1 ZINC000014881137    0.1200
49     H49    -8.7677   -8.6409   -1.1601 H        1 ZINC000014881137    0.1200
50     H50    -7.7599   -7.1737   -1.1619 H        1 ZINC000014881137    0.1200
51     H51    -6.5045  -10.5706   -0.8826 H        1 ZINC000014881137    0.1300
52     H52    -6.4875  -10.5801    0.8972 H        1 ZINC000014881137    0.1300
53     H53    -8.9603  -10.3971    0.9218 H        1 ZINC000014881137    0.0900
54     H54    -8.9773  -10.3875   -0.8580 H        1 ZINC000014881137    0.0900
55     H55    -7.9191  -12.6300   -0.8802 H        1 ZINC000014881137    0.0700
56     H56    -7.9022  -12.6395    0.8997 H        1 ZINC000014881137    0.0700
57     H57   -10.3749  -12.4565    0.9243 H        1 ZINC000014881137    0.0700
58     H58   -10.3919  -12.4470   -0.8556 H        1 ZINC000014881137    0.0700
59     H59    -9.3338  -14.6894   -0.8778 H        1 ZINC000014881137    0.0600
60     H60    -9.3168  -14.6990    0.9021 H        1 ZINC000014881137    0.0600
61     H61   -11.7895  -14.5159    0.9267 H        1 ZINC000014881137    0.0600
62     H62   -11.8065  -14.5064   -0.8532 H        1 ZINC000014881137    0.0600
63     H63   -10.7484  -16.7488   -0.8753 H        1 ZINC000014881137    0.0600
64     H64   -10.7314  -16.7584    0.9045 H        1 ZINC000014881137    0.0600
65     H65   -13.2042  -16.5754    0.9291 H        1 ZINC000014881137    0.0600
66     H66   -13.2212  -16.5658   -0.8507 H        1 ZINC000014881137    0.0600
67     H67   -12.1631  -18.8082   -0.8729 H        1 ZINC000014881137    0.0600
68     H68   -12.1461  -18.8178    0.9070 H        1 ZINC000014881137    0.0600
69     H69   -14.0938  -20.0762    0.0288 H        1 ZINC000014881137    0.0600
70     H70   -14.6188  -18.6348    0.9316 H        1 ZINC000014881137    0.0500
71     H71   -14.6358  -18.6252   -0.8483 H        1 ZINC000014881137    0.0500
@<TRIPOS>BOND
1     1     2     1
2     1     24    1
3     1     25    1
4     1     26    1
5     2     3     1
6     2     27    1
7     2     28    1
8     3     4     1
9     3     29    1
10    3     30    1
11    4     5     1
12    4     31    1
13    4     32    1
14    5     6     1
15    5     33    1
16    5     34    1
17    6     7     1
18    6     35    1
19    6     36    1
20    7     8     1
21    7     37    1
22    7     38    1
23    8     9     1
24    8     39    1
25    8     40    1
26    9     10    1
27    9     41    1
28    9     42    1
29    10    11    1
30    10    43    1
31    10    44    1
32    11    12    1
33    11    13    1
34    11    14    1
35    12    45    1
36    12    46    1
37    12    47    1
38    13    48    1
39    13    49    1
40    13    50    1
41    14    15    1
42    14    51    1
43    14    52    1
44    15    16    1
45    15    53    1
46    15    54    1
47    16    17    1
48    16    55    1
49    16    56    1
50    17    18    1
51    17    57    1
52    17    58    1
53    18    19    1
54    18    59    1
55    18    60    1
56    19    20    1
57    19    61    1
58    19    62    1
59    20    21    1
60    20    63    1
61    20    64    1
62    21    22    1
63    21    65    1
64    21    66    1
65    22    23    1
66    22    67    1
67    22    68    1
68    23    69    1
69    23    70    1
70    23    71    1
@<TRIPOS>SUBSTRUCTURE
1   ZINC000014881137 1     RESIDUE    1   A     ZIN   1
