@<TRIPOS>MOLECULE
ZINC000004393164
93    93    1     0     0
SMALL
USER_CHARGES
@<TRIPOS>ATOM
1      C1     -6.8641  -11.7508    5.8031 C.3      1 ZINC000004393164    0.0300
2      O2     -6.4607  -12.0065    4.4563 O.3      1 ZINC000004393164   -0.3900
3      C3     -7.0868  -11.1587    3.4912 C.3      1 ZINC000004393164    0.0700
4      C4     -6.5831  -11.5196    2.0923 C.3      1 ZINC000004393164   -0.1200
5      C5     -7.2533  -10.6119    1.0590 C.3      1 ZINC000004393164    0.0600
6      O6     -6.7829  -10.9490   -0.2476 O.3      1 ZINC000004393164   -0.3000
7      C7     -7.2837  -10.2311   -1.2884 C.ar     1 ZINC000004393164    0.1100
8      C8     -8.2029   -9.2210   -1.0564 C.ar     1 ZINC000004393164   -0.1700
9      C9     -8.7108   -8.4917   -2.1158 C.ar     1 ZINC000004393164   -0.0900
10     C10    -9.7106   -7.3932   -1.8616 C.3      1 ZINC000004393164   -0.0800
11     C11    -8.9712   -6.0731   -1.6343 C.3      1 ZINC000004393164   -0.0900
12     H12    -8.2935   -5.8882   -2.4677 H        1 ZINC000004393164    0.0700
13     C13    -9.9847   -4.9310   -1.5379 C.3      1 ZINC000004393164   -0.1400
14     C14   -10.6696   -4.7412   -2.8928 C.3      1 ZINC000004393164   -0.0100
15     H15   -11.1146   -5.6842   -3.2103 H        1 ZINC000004393164    0.1600
16     N16    -9.6779   -4.3087   -3.8865 N.4      1 ZINC000004393164   -0.6400
17     H17    -9.2059   -3.4818   -3.5528 H        1 ZINC000004393164    0.4300
18     H18    -9.0038   -5.0454   -4.0316 H        1 ZINC000004393164    0.4400
19     H19   -10.1429   -4.1020   -4.7578 H        1 ZINC000004393164    0.4400
20     C20   -11.7628   -3.6781   -2.7672 C.3      1 ZINC000004393164    0.0900
21     H21   -12.4986   -3.9990   -2.0299 H        1 ZINC000004393164    0.1500
22     O22   -11.1794   -2.4418   -2.3511 O.3      1 ZINC000004393164   -0.5300
23     C23   -12.4477   -3.4884   -4.1222 C.3      1 ZINC000004393164   -0.1600
24     C24   -13.6487   -2.5544   -3.9601 C.3      1 ZINC000004393164   -0.1000
25     H25   -14.2940   -2.9270   -3.1646 H        1 ZINC000004393164    0.1000
26     C26   -14.4227   -2.5027   -5.2521 C.2      1 ZINC000004393164    0.5200
27     O27   -13.9529   -2.9862   -6.2603 O.2      1 ZINC000004393164   -0.5400
28     N28   -15.6371   -1.9192   -5.2872 N.am     1 ZINC000004393164   -0.7200
29     C29   -16.3521   -1.7918   -6.5596 C.3      1 ZINC000004393164    0.1400
30     C30   -17.6953   -1.0987   -6.3226 C.3      1 ZINC000004393164   -0.1000
31     C31   -18.5328   -1.9292   -5.3480 C.3      1 ZINC000004393164   -0.1400
32     C32   -17.4545    0.2917   -5.7314 C.3      1 ZINC000004393164   -0.1500
33     C33   -18.4307   -0.9676   -7.6314 C.2      1 ZINC000004393164    0.5300
34     N34   -19.6451   -0.3841   -7.6666 N.am     1 ZINC000004393164   -0.8500
35     O35   -17.9298   -1.3872   -8.6532 O.2      1 ZINC000004393164   -0.5300
36     C36   -13.1580   -1.1499   -3.6031 C.3      1 ZINC000004393164   -0.1000
37     C37   -12.2610   -0.6225   -4.7248 C.3      1 ZINC000004393164   -0.1500
38     C38   -14.3595   -0.2185   -3.4304 C.3      1 ZINC000004393164   -0.1700
39     C39    -8.1697   -6.1549   -0.3336 C.3      1 ZINC000004393164   -0.0900
40     C40    -7.3155   -4.8948   -0.1809 C.3      1 ZINC000004393164   -0.1600
41     C41    -9.1309   -6.2662    0.8516 C.3      1 ZINC000004393164   -0.1600
42     C42    -8.3031   -8.7676   -3.4073 C.ar     1 ZINC000004393164   -0.1200
43     C43    -7.3862   -9.7749   -3.6458 C.ar     1 ZINC000004393164   -0.1700
44     C44    -6.8695  -10.5058   -2.5886 C.ar     1 ZINC000004393164    0.1100
45     O45    -5.9677  -11.4967   -2.8214 O.3      1 ZINC000004393164   -0.3000
46     C46    -5.5973  -11.7304   -4.1817 C.3      1 ZINC000004393164    0.0200
47     H47    -6.3448  -12.4350    6.4741 H        1 ZINC000004393164    0.0900
48     H48    -6.6153  -10.7232    6.0681 H        1 ZINC000004393164    0.0400
49     H49    -7.9401  -11.8992    5.8945 H        1 ZINC000004393164    0.0400
50     H50    -8.1674  -11.2947    3.5346 H        1 ZINC000004393164    0.0500
51     H51    -6.8425  -10.1188    3.7082 H        1 ZINC000004393164    0.0500
52     H52    -5.5025  -11.3835    2.0489 H        1 ZINC000004393164    0.0900
53     H53    -6.8274  -12.5595    1.8752 H        1 ZINC000004393164    0.0900
54     H54    -8.3339  -10.7480    1.1024 H        1 ZINC000004393164    0.0600
55     H55    -7.0091   -9.5720    1.2760 H        1 ZINC000004393164    0.0600
56     H56    -8.5231   -9.0034   -0.0482 H        1 ZINC000004393164    0.1400
57     H57   -10.3708   -7.2962   -2.7234 H        1 ZINC000004393164    0.0700
58     H58   -10.3004   -7.6361   -0.9777 H        1 ZINC000004393164    0.0900
59     H59   -10.7331   -5.1721   -0.7831 H        1 ZINC000004393164    0.1200
60     H60    -9.4703   -4.0114   -1.2589 H        1 ZINC000004393164    0.1000
61     H61   -10.5673   -2.0594   -2.9947 H        1 ZINC000004393164    0.3700
62     H62   -11.7412   -3.0525   -4.8285 H        1 ZINC000004393164    0.0800
63     H63   -12.7865   -4.4544   -4.4964 H        1 ZINC000004393164    0.1000
64     H64   -16.0378   -1.5836   -4.4701 H        1 ZINC000004393164    0.4000
65     H65   -15.7554   -1.2001   -7.2539 H        1 ZINC000004393164    0.0800
66     H66   -16.5236   -2.7824   -6.9808 H        1 ZINC000004393164    0.0800
67     H67   -18.0009   -2.0241   -4.4014 H        1 ZINC000004393164    0.0700
68     H68   -19.4898   -1.4355   -5.1792 H        1 ZINC000004393164    0.0700
69     H69   -18.7043   -2.9198   -5.7692 H        1 ZINC000004393164    0.0700
70     H70   -16.8579    0.8834   -6.4257 H        1 ZINC000004393164    0.0700
71     H71   -18.4115    0.7855   -5.5626 H        1 ZINC000004393164    0.0700
72     H72   -16.9226    0.1969   -4.7848 H        1 ZINC000004393164    0.0700
73     H73   -20.0458   -0.0485   -6.8494 H        1 ZINC000004393164    0.4000
74     H74   -20.1185   -0.2997   -8.5090 H        1 ZINC000004393164    0.4100
75     H75   -12.5915   -1.1885   -2.6726 H        1 ZINC000004393164    0.1200
76     H76   -12.8470   -0.5123   -5.6372 H        1 ZINC000004393164    0.0600
77     H77   -11.8508    0.3455   -4.4372 H        1 ZINC000004393164    0.0700
78     H78   -11.4461   -1.3252   -4.8990 H        1 ZINC000004393164    0.0400
79     H79   -15.0353   -0.6322   -2.6819 H        1 ZINC000004393164    0.0600
80     H80   -14.0145    0.7631   -3.1054 H        1 ZINC000004393164    0.0700
81     H81   -14.8846   -0.1228   -4.3807 H        1 ZINC000004393164    0.0700
82     H82    -7.5226   -7.0316   -0.3601 H        1 ZINC000004393164    0.0900
83     H83    -7.9561   -4.0140   -0.2251 H        1 ZINC000004393164    0.0600
84     H84    -6.7986   -4.9203    0.7784 H        1 ZINC000004393164    0.0600
85     H85    -6.5832   -4.8523   -0.9872 H        1 ZINC000004393164    0.0500
86     H86    -9.8003   -7.1126    0.6983 H        1 ZINC000004393164    0.0600
87     H87    -8.5610   -6.4151    1.7687 H        1 ZINC000004393164    0.0600
88     H88    -9.7160   -5.3501    0.9321 H        1 ZINC000004393164    0.0600
89     H89    -8.7018   -8.1956   -4.2320 H        1 ZINC000004393164    0.1200
90     H90    -7.0698   -9.9890   -4.6560 H        1 ZINC000004393164    0.1400
91     H91    -5.1529  -10.8262   -4.5977 H        1 ZINC000004393164    0.0600
92     H92    -4.8740  -12.5446   -4.2266 H        1 ZINC000004393164    0.1100
93     H93    -6.4826  -11.9986   -4.7584 H        1 ZINC000004393164    0.0600
@<TRIPOS>BOND
1     1     2     1
2     1     47    1
3     1     48    1
4     1     49    1
5     2     3     1
6     3     4     1
7     3     50    1
8     3     51    1
9     4     5     1
10    4     52    1
11    4     53    1
12    5     6     1
13    5     54    1
14    5     55    1
15    6     7     1
16    7     44    ar
17    7     8     ar
18    8     9     ar
19    8     56    1
20    9     10    1
21    9     42    ar
22    10    11    1
23    10    57    1
24    10    58    1
25    11    12    1
26    11    13    1
27    11    39    1
28    13    14    1
29    13    59    1
30    13    60    1
31    14    15    1
32    14    16    1
33    14    20    1
34    16    17    1
35    16    18    1
36    16    19    1
37    20    21    1
38    20    22    1
39    20    23    1
40    22    61    1
41    23    24    1
42    23    62    1
43    23    63    1
44    24    25    1
45    24    26    1
46    24    36    1
47    26    27    2
48    26    28    am
49    28    29    1
50    28    64    1
51    29    30    1
52    29    65    1
53    29    66    1
54    30    31    1
55    30    32    1
56    30    33    1
57    31    67    1
58    31    68    1
59    31    69    1
60    32    70    1
61    32    71    1
62    32    72    1
63    33    34    am
64    33    35    2
65    34    73    1
66    34    74    1
67    36    37    1
68    36    38    1
69    36    75    1
70    37    76    1
71    37    77    1
72    37    78    1
73    38    79    1
74    38    80    1
75    38    81    1
76    39    40    1
77    39    41    1
78    39    82    1
79    40    83    1
80    40    84    1
81    40    85    1
82    41    86    1
83    41    87    1
84    41    88    1
85    42    43    ar
86    42    89    1
87    43    44    ar
88    43    90    1
89    44    45    1
90    45    46    1
91    46    91    1
92    46    92    1
93    46    93    1
@<TRIPOS>SUBSTRUCTURE
1   ZINC000004393164 1     RESIDUE    1   A     ZIN   1
