@<TRIPOS>MOLECULE
ZINC000000001899
33    34    1     0     0
SMALL
USER_CHARGES
@<TRIPOS>ATOM
1      N1     -0.0165    1.3681    0.0096 N.pl3    1 ZINC000000001899   -0.8200
2      C2      0.0021   -0.0041    0.0020 C.2      1 ZINC000000001899    0.6600
3      N3     -1.1382   -0.6578    0.0040 N.2      1 ZINC000000001899   -0.5800
4      C4     -1.1685   -1.9955   -0.0031 C.2      1 ZINC000000001899    0.3100
5      C5      0.0312   -2.7162   -0.0129 C.2      1 ZINC000000001899   -0.1500
6      N6     -0.2906   -4.0328   -0.0184 N.2      1 ZINC000000001899   -0.4200
7      C7     -1.5853   -4.1598   -0.0128 C.2      1 ZINC000000001899    0.2100
8      N8     -2.1710   -2.9271   -0.0033 N.pl3    1 ZINC000000001899   -0.4500
9      C9     -3.6099   -2.6516    0.0052 C.3      1 ZINC000000001899    0.1100
10     C10    -4.0940   -2.4238   -1.4282 C.3      1 ZINC000000001899   -0.1300
11     C11    -5.5966   -2.1360   -1.4193 C.3      1 ZINC000000001899   -0.0900
12     C12    -5.8591   -0.8173   -0.6890 C.3      1 ZINC000000001899    0.0800
13     O13    -7.2681   -0.6063   -0.5785 O.3      1 ZINC000000001899   -0.5500
14     C14    -6.1044   -2.0316   -2.8588 C.3      1 ZINC000000001899    0.0900
15     O15    -7.5253   -1.8790   -2.8528 O.3      1 ZINC000000001899   -0.5500
16     C16     1.2511   -2.0002   -0.0145 C.2      1 ZINC000000001899    0.5900
17     O17     2.3198   -2.5868   -0.0229 O.2      1 ZINC000000001899   -0.5100
18     N18     1.2025   -0.6496   -0.0129 N.am     1 ZINC000000001899   -0.6600
19     H19     0.8168    1.8644    0.0043 H        1 ZINC000000001899    0.4200
20     H20    -0.8631    1.8416    0.0162 H        1 ZINC000000001899    0.4300
21     H21    -2.1170   -5.0999   -0.0150 H        1 ZINC000000001899    0.2200
22     H22    -4.1398   -3.5005    0.4371 H        1 ZINC000000001899    0.1000
23     H23    -3.8055   -1.7599    0.6009 H        1 ZINC000000001899    0.1000
24     H24    -3.5640   -1.5748   -1.8601 H        1 ZINC000000001899    0.0800
25     H25    -3.8983   -3.3154   -2.0238 H        1 ZINC000000001899    0.0800
26     H26    -6.1184   -2.9447   -0.9077 H        1 ZINC000000001899    0.0900
27     H27    -5.4188   -0.8599    0.3072 H        1 ZINC000000001899    0.0400
28     H28    -5.4116    0.0036   -1.2493 H        1 ZINC000000001899    0.0400
29     H29    -7.5086    0.2132   -0.1250 H        1 ZINC000000001899    0.3700
30     H30    -5.6484   -1.1682   -3.3432 H        1 ZINC000000001899    0.0400
31     H31    -5.8385   -2.9370   -3.4044 H        1 ZINC000000001899    0.0400
32     H32    -7.9168   -1.8065   -3.7340 H        1 ZINC000000001899    0.3700
33     H33     2.0260   -0.1371   -0.0140 H        1 ZINC000000001899    0.4200
@<TRIPOS>BOND
1     1     2     1
2     1     19    1
3     1     20    1
4     2     18    1
5     2     3     2
6     3     4     1
7     4     8     1
8     4     5     2
9     5     6     1
10    5     16    1
11    6     7     2
12    7     8     1
13    7     21    1
14    8     9     1
15    9     10    1
16    9     22    1
17    9     23    1
18    10    11    1
19    10    24    1
20    10    25    1
21    11    12    1
22    11    14    1
23    11    26    1
24    12    13    1
25    12    27    1
26    12    28    1
27    13    29    1
28    14    15    1
29    14    30    1
30    14    31    1
31    15    32    1
32    16    17    2
33    16    18    am
34    18    33    1
@<TRIPOS>SUBSTRUCTURE
1   ZINC000000001899 1     RESIDUE    1   A     ZIN   1
