@<TRIPOS>MOLECULE
ZINC000003932831
67    71    1     0     0
SMALL
USER_CHARGES
@<TRIPOS>ATOM
1      C1     -0.0139    1.5047    0.0177 C.3      1 ZINC000003932831   -0.1600
2      C2      0.0120   -0.0250   -0.0014 C.3      1 ZINC000003932831   -0.0500
3      C3     -1.3927   -0.5635    0.1862 C.3      1 ZINC000003932831   -0.1100
4      C4     -1.9486    0.0482    1.4833 C.3      1 ZINC000003932831   -0.1200
5      C5     -1.0561   -0.2755    2.6765 C.3      1 ZINC000003932831   -0.0700
6      H6     -1.0658   -1.3524    2.8443 H        1 ZINC000003932831    0.0800
7      C7      0.3931    0.1795    2.4344 C.3      1 ZINC000003932831   -0.0800
8      H8      0.4182    1.2586    2.2824 H        1 ZINC000003932831    0.0900
9      C9      1.2547   -0.1896    3.6414 C.3      1 ZINC000003932831   -0.1100
10     C10     0.7042    0.4891    4.8997 C.3      1 ZINC000003932831   -0.1300
11     C11    -0.7334    0.0261    5.1270 C.3      1 ZINC000003932831    0.1500
12     H12    -0.7484   -1.0587    5.2326 H        1 ZINC000003932831    0.0800
13     N13    -1.2976    0.6342    6.3300 N.am     1 ZINC000003932831   -0.7200
14     C14    -2.6396    0.7272    6.4586 C.2      1 ZINC000003932831    0.5500
15     O15    -3.1261    1.2610    7.4371 O.2      1 ZINC000003932831   -0.5400
16     C16    -3.5090    0.1757    5.4033 C.2      1 ZINC000003932831   -0.2000
17     C17    -3.0162    0.0211    4.1720 C.2      1 ZINC000003932831   -0.0900
18     C18    -1.5746    0.4263    3.9293 C.3      1 ZINC000003932831   -0.0500
19     C19    -1.5039    1.9380    3.7040 C.3      1 ZINC000003932831   -0.1500
20     C20     0.8738   -0.5500    1.1788 C.3      1 ZINC000003932831   -0.0800
21     H21     0.7574   -1.6272    1.2984 H        1 ZINC000003932831    0.0800
22     C22     2.2948   -0.2151    0.7127 C.3      1 ZINC000003932831   -0.1200
23     C23     2.2643   -0.5925   -0.7936 C.3      1 ZINC000003932831   -0.1100
24     C24     0.7695   -0.5123   -1.2322 C.3      1 ZINC000003932831   -0.1000
25     H25     0.4077   -1.4986   -1.5227 H        1 ZINC000003932831    0.1000
26     C26     0.6119    0.4581   -2.3743 C.2      1 ZINC000003932831    0.5300
27     O27     1.4168    1.3528   -2.5255 O.2      1 ZINC000003932831   -0.5000
28     N28    -0.4236    0.3319   -3.2278 N.am     1 ZINC000003932831   -0.6800
29     C29    -0.5071    1.1588   -4.3535 C.ar     1 ZINC000003932831    0.2100
30     C30     0.6431    1.7219   -4.8901 C.ar     1 ZINC000003932831   -0.0900
31     C31     0.5572    2.5378   -6.0014 C.ar     1 ZINC000003932831   -0.1300
32     C32     1.8050    3.1493   -6.5844 C.3      1 ZINC000003932831    0.5100
33     F33     2.3403    2.2877   -7.5479 F        1 ZINC000003932831   -0.1700
34     F34     1.4893    4.3756   -7.1793 F        1 ZINC000003932831   -0.1700
35     F35     2.7439    3.3524   -5.5673 F        1 ZINC000003932831   -0.1700
36     C36    -0.6723    2.7936   -6.5797 C.ar     1 ZINC000003932831   -0.0900
37     C37    -1.8199    2.2346   -6.0473 C.ar     1 ZINC000003932831   -0.0500
38     C38    -1.7402    1.4135   -4.9399 C.ar     1 ZINC000003932831   -0.2000
39     C39    -2.9911    0.8049   -4.3605 C.3      1 ZINC000003932831    0.5100
40     F40    -4.0992    1.2144   -5.1098 F        1 ZINC000003932831   -0.1700
41     F41    -2.8920   -0.5901   -4.3990 F        1 ZINC000003932831   -0.1800
42     F42    -3.1434    1.2252   -3.0349 F        1 ZINC000003932831   -0.1700
43     H43     1.0074    1.8855    0.0080 H        1 ZINC000003932831    0.0700
44     H44    -0.5462    1.8701   -0.8605 H        1 ZINC000003932831    0.0500
45     H45    -0.5212    1.8482    0.9192 H        1 ZINC000003932831    0.0700
46     H46    -2.0172   -0.2722   -0.6584 H        1 ZINC000003932831    0.0600
47     H47    -1.3650   -1.6498    0.2707 H        1 ZINC000003932831    0.0700
48     H48    -2.0124    1.1303    1.3687 H        1 ZINC000003932831    0.0700
49     H49    -2.9468   -0.3496    1.6662 H        1 ZINC000003932831    0.0700
50     H50     1.2424   -1.2709    3.7782 H        1 ZINC000003932831    0.0700
51     H51     2.2790    0.1413    3.4700 H        1 ZINC000003932831    0.0700
52     H52     1.3158    0.2147    5.7592 H        1 ZINC000003932831    0.0700
53     H53     0.7223    1.5710    4.7681 H        1 ZINC000003932831    0.0800
54     H54    -0.7144    0.9677    7.0297 H        1 ZINC000003932831    0.4000
55     H55    -4.5301   -0.0991    5.6230 H        1 ZINC000003932831    0.1400
56     H56    -3.6331   -0.3723    3.3776 H        1 ZINC000003932831    0.1400
57     H57    -1.8843    2.4549    4.5851 H        1 ZINC000003932831    0.0600
58     H58    -0.4687    2.2313    3.5294 H        1 ZINC000003932831    0.0700
59     H59    -2.1083    2.2048    2.8370 H        1 ZINC000003932831    0.0700
60     H60     2.5021    0.8474    0.8400 H        1 ZINC000003932831    0.0700
61     H61     3.0283   -0.8189    1.2469 H        1 ZINC000003932831    0.0700
62     H62     2.8607    0.1157   -1.3688 H        1 ZINC000003932831    0.0900
63     H63     2.6457   -1.6040   -0.9336 H        1 ZINC000003932831    0.0700
64     H64    -1.1108   -0.3322   -3.0617 H        1 ZINC000003932831    0.4200
65     H65     1.6038    1.5224   -4.4388 H        1 ZINC000003932831    0.1700
66     H66    -0.7368    3.4316   -7.4487 H        1 ZINC000003932831    0.1500
67     H67    -2.7790    2.4370   -6.5009 H        1 ZINC000003932831    0.1600
@<TRIPOS>BOND
1     1     2     1
2     1     43    1
3     1     44    1
4     1     45    1
5     2     20    1
6     2     24    1
7     2     3     1
8     3     4     1
9     3     46    1
10    3     47    1
11    4     5     1
12    4     48    1
13    4     49    1
14    5     6     1
15    5     18    1
16    5     7     1
17    7     8     1
18    7     9     1
19    7     20    1
20    9     10    1
21    9     50    1
22    9     51    1
23    10    11    1
24    10    52    1
25    10    53    1
26    11    12    1
27    11    18    1
28    11    13    1
29    13    14    am
30    13    54    1
31    14    15    2
32    14    16    1
33    16    17    2
34    16    55    1
35    17    18    1
36    17    56    1
37    18    19    1
38    19    57    1
39    19    58    1
40    19    59    1
41    20    21    1
42    20    22    1
43    22    23    1
44    22    60    1
45    22    61    1
46    23    24    1
47    23    62    1
48    23    63    1
49    24    25    1
50    24    26    1
51    26    27    2
52    26    28    am
53    28    29    1
54    28    64    1
55    29    38    ar
56    29    30    ar
57    30    31    ar
58    30    65    1
59    31    32    1
60    31    36    ar
61    32    33    1
62    32    34    1
63    32    35    1
64    36    37    ar
65    36    66    1
66    37    38    ar
67    37    67    1
68    38    39    1
69    39    40    1
70    39    41    1
71    39    42    1
@<TRIPOS>SUBSTRUCTURE
1   ZINC000003932831 1     RESIDUE    1   A     ZIN   1
