@<TRIPOS>MOLECULE
ZINC000000601254
40    42    1     0     0
SMALL
USER_CHARGES
@<TRIPOS>ATOM
1      C1     -0.0184    1.5028    0.0103 C.3      1 ZINC000000601254   -0.1100
2      C2      0.0021   -0.0041    0.0020 C.ar     1 ZINC000000601254   -0.0700
3      C3      0.0057   -0.6887   -1.1972 C.ar     1 ZINC000000601254   -0.1100
4      C4      0.0244   -2.0716   -1.2057 C.ar     1 ZINC000000601254   -0.1000
5      C5      0.0391   -2.7731   -0.0143 C.ar     1 ZINC000000601254   -0.1200
6      C6      0.0355   -2.0944    1.1887 C.ar     1 ZINC000000601254   -0.1000
7      C7      0.0230   -0.7058    1.2007 C.ar     1 ZINC000000601254    0.1300
8      N8      0.0193   -0.0155    2.4170 N.am     1 ZINC000000601254   -0.5800
9      C9     -1.1577    0.2960    2.9981 C.2      1 ZINC000000601254    0.5700
10     O10    -2.2048   -0.0788    2.5059 O.2      1 ZINC000000601254   -0.5000
11     C11    -1.1603    1.0948    4.2361 C.ar     1 ZINC000000601254   -0.2200
12     C12    -2.2977    1.2105    5.0312 C.ar     1 ZINC000000601254    0.0900
13     C13    -2.2509    1.9754    6.1781 C.ar     1 ZINC000000601254   -0.7300
14     S14    -3.6865    2.1247    7.1887 S.o2     1 ZINC000000601254    2.7000
15     N15    -3.3396    1.4100    8.6417 N.am     1 ZINC000000601254   -1.2400
16     O16    -3.8492    3.5115    7.4523 O.2      1 ZINC000000601254   -0.9500
17     O17    -4.6914    1.3264    6.5787 O.2      1 ZINC000000601254   -0.9500
18     C18    -1.0819    2.6277    6.5422 C.ar     1 ZINC000000601254    0.1100
19     Cl19   -1.0462    3.5877    7.9882 Cl       1 ZINC000000601254   -0.0200
20     C20     0.0560    2.5189    5.7624 C.ar     1 ZINC000000601254   -0.1900
21     C21     0.0255    1.7532    4.6110 C.ar     1 ZINC000000601254    0.3000
22     N22     1.1429    1.6018    3.7975 N.pl3    1 ZINC000000601254   -0.7400
23     C23     1.2918    0.3505    3.0387 C.3      1 ZINC000000601254    0.3800
24     H24     2.0427    0.4875    2.2605 H        1 ZINC000000601254    0.1100
25     C25     1.7404   -0.7653    3.9846 C.3      1 ZINC000000601254   -0.1800
26     H26     1.0042    1.8801    0.0026 H        1 ZINC000000601254    0.0700
27     H27    -0.5455    1.8639   -0.8728 H        1 ZINC000000601254    0.0700
28     H28    -0.5286    1.8543    0.9071 H        1 ZINC000000601254    0.0600
29     H29    -0.0064   -0.1437   -2.1295 H        1 ZINC000000601254    0.1300
30     H30     0.0273   -2.6047   -2.1449 H        1 ZINC000000601254    0.1300
31     H31     0.0529   -3.8530   -0.0243 H        1 ZINC000000601254    0.1300
32     H32     0.0470   -2.6429    2.1189 H        1 ZINC000000601254    0.1200
33     H33    -3.2103    0.7051    4.7516 H        1 ZINC000000601254    0.1700
34     H34    -3.7643    1.7298    9.4531 H        1 ZINC000000601254    0.4200
35     H35    -2.7118    0.6717    8.6814 H        1 ZINC000000601254    0.4200
36     H36     0.9631    3.0288    6.0514 H        1 ZINC000000601254    0.1500
37     H37     1.8093    2.3038    3.7348 H        1 ZINC000000601254    0.4200
38     H38     0.9938   -0.9002    4.7672 H        1 ZINC000000601254    0.0700
39     H39     1.8515   -1.6937    3.4245 H        1 ZINC000000601254    0.0800
40     H40     2.6955   -0.4968    4.4360 H        1 ZINC000000601254    0.0800
@<TRIPOS>BOND
1     1     2     1
2     1     26    1
3     1     27    1
4     1     28    1
5     2     7     ar
6     2     3     ar
7     3     4     ar
8     3     29    1
9     4     5     ar
10    4     30    1
11    5     6     ar
12    5     31    1
13    6     7     ar
14    6     32    1
15    7     8     1
16    8     23    1
17    8     9     am
18    9     10    2
19    9     11    1
20    11    21    ar
21    11    12    ar
22    12    13    ar
23    12    33    1
24    13    14    1
25    13    18    ar
26    14    15    am
27    14    16    2
28    14    17    2
29    15    34    1
30    15    35    1
31    18    19    1
32    18    20    ar
33    20    21    ar
34    20    36    1
35    21    22    1
36    22    23    1
37    22    37    1
38    23    24    1
39    23    25    1
40    25    38    1
41    25    39    1
42    25    40    1
@<TRIPOS>SUBSTRUCTURE
1   ZINC000000601254 1     RESIDUE    1   A     ZIN   1
