@<TRIPOS>MOLECULE
ZINC000003941829
74    76    1     0     0
SMALL
USER_CHARGES
@<TRIPOS>ATOM
1      C1      0.5645    0.5404   -1.1778 C.3      1 ZINC000003941829   -0.1500
2      C2      0.0339   -0.8609   -0.8680 C.3      1 ZINC000003941829   -0.1200
3      C3      0.9367   -1.5301    0.1703 C.3      1 ZINC000003941829   -0.1400
4      C4     -1.3890   -0.7569   -0.3154 C.3      1 ZINC000003941829    0.1300
5      N5     -2.2808   -0.2409   -1.3568 N.am     1 ZINC000003941829   -0.9800
6      C6     -2.5259   -1.0285   -2.5676 C.3      1 ZINC000003941829    0.1100
7      C7     -3.6520   -2.0304   -2.3050 C.3      1 ZINC000003941829    0.1400
8      H8     -3.4027   -2.6375   -1.4347 H        1 ZINC000003941829    0.0800
9      O9     -4.8701   -1.3245   -2.0603 O.3      1 ZINC000003941829   -0.7300
10     P10    -5.6970   -1.4531   -0.6848 P.3      1 ZINC000003941829    2.1800
11     O11    -4.7710   -1.1188    0.5059 O.2      1 ZINC000003941829   -1.0900
12     O12    -6.2269   -2.8967   -0.5355 O.3      1 ZINC000003941829   -1.1000
13     O13    -6.9365   -0.4258   -0.7056 O.3      1 ZINC000003941829   -0.8900
14     C14    -3.8239   -2.9360   -3.5262 C.3      1 ZINC000003941829    0.1600
15     H15    -2.8707   -3.4067   -3.7665 H        1 ZINC000003941829    0.1000
16     C16    -4.2951   -2.1006   -4.7183 C.3      1 ZINC000003941829   -0.1000
17     C17    -4.3465   -2.9674   -5.9501 C.ar     1 ZINC000003941829   -0.0500
18     C18    -3.2327   -3.0836   -6.7605 C.ar     1 ZINC000003941829   -0.1100
19     C19    -3.2799   -3.8786   -7.8903 C.ar     1 ZINC000003941829   -0.1200
20     C20    -4.4408   -4.5578   -8.2095 C.ar     1 ZINC000003941829   -0.1300
21     C21    -5.5543   -4.4424   -7.3986 C.ar     1 ZINC000003941829   -0.1200
22     C22    -5.5058   -3.6507   -6.2664 C.ar     1 ZINC000003941829   -0.1100
23     N23    -4.8186   -3.9702   -3.2311 N.am     1 ZINC000003941829   -0.7000
24     C24    -4.7911   -5.1414   -3.8974 C.2      1 ZINC000003941829    0.6500
25     O25    -3.9413   -5.3395   -4.7430 O.2      1 ZINC000003941829   -0.5700
26     O26    -5.7053   -6.0919   -3.6262 O.3      1 ZINC000003941829   -0.3500
27     C27    -5.6152   -7.3281   -4.3824 C.3      1 ZINC000003941829    0.0800
28     H28    -4.5839   -7.5292   -4.6724 H        1 ZINC000003941829    0.1000
29     C29    -6.2032   -8.5156   -3.5725 C.3      1 ZINC000003941829   -0.1600
30     C30    -6.6677   -9.4509   -4.7172 C.3      1 ZINC000003941829    0.0500
31     O31    -7.1527   -8.5730   -5.7455 O.3      1 ZINC000003941829   -0.3800
32     C32    -6.5353   -7.2826   -5.6213 C.3      1 ZINC000003941829    0.0400
33     S33    -3.0120    1.2325   -1.1654 S.o2     1 ZINC000003941829    2.6900
34     O34    -4.1116    1.2547   -2.0651 O.2      1 ZINC000003941829   -0.9400
35     O35    -3.1492    1.4335    0.2346 O.2      1 ZINC000003941829   -0.9300
36     C36    -1.8783    2.4552   -1.7349 C.ar     1 ZINC000003941829   -0.7300
37     C37    -1.0571    3.1077   -0.8337 C.ar     1 ZINC000003941829    0.0300
38     C38    -0.1674    4.0666   -1.2767 C.ar     1 ZINC000003941829   -0.2200
39     C39    -0.0981    4.3754   -2.6293 C.ar     1 ZINC000003941829    0.2600
40     N40     0.8009    5.3443   -3.0808 N.pl3    1 ZINC000003941829   -0.8700
41     C41    -0.9245    3.7181   -3.5319 C.ar     1 ZINC000003941829   -0.2200
42     C42    -1.8079    2.7562   -3.0828 C.ar     1 ZINC000003941829    0.0300
43     H43     1.6137    0.4761   -1.4660 H        1 ZINC000003941829    0.0500
44     H44    -0.0111    0.9742   -1.9954 H        1 ZINC000003941829    0.0600
45     H45     0.4687    1.1690   -0.2925 H        1 ZINC000003941829    0.0500
46     H46     0.0265   -1.4566   -1.7809 H        1 ZINC000003941829    0.0700
47     H47     0.9441   -0.9344    1.0831 H        1 ZINC000003941829    0.0600
48     H48     0.5588   -2.5283    0.3909 H        1 ZINC000003941829    0.0600
49     H49     1.9504   -1.6042   -0.2235 H        1 ZINC000003941829    0.0500
50     H50    -1.7297   -1.7435   -0.0012 H        1 ZINC000003941829    0.0800
51     H51    -1.3983   -0.0802    0.5390 H        1 ZINC000003941829    0.0900
52     H52    -2.8138   -0.3633   -3.3816 H        1 ZINC000003941829    0.0900
53     H53    -1.6180   -1.5659   -2.8414 H        1 ZINC000003941829    0.0900
54     H54    -7.4800   -0.4490    0.0938 H        1 ZINC000003941829    0.4100
55     H55    -5.2886   -1.7021   -4.5127 H        1 ZINC000003941829    0.0900
56     H56    -3.6000   -1.2771   -4.8823 H        1 ZINC000003941829    0.0900
57     H57    -2.3257   -2.5529   -6.5111 H        1 ZINC000003941829    0.1100
58     H58    -2.4099   -3.9688   -8.5238 H        1 ZINC000003941829    0.1100
59     H59    -4.4779   -5.1784   -9.0926 H        1 ZINC000003941829    0.1100
60     H60    -6.4614   -4.9728   -7.6482 H        1 ZINC000003941829    0.1100
61     H61    -6.3758   -3.5605   -5.6329 H        1 ZINC000003941829    0.1100
62     H62    -5.4971   -3.8121   -2.5560 H        1 ZINC000003941829    0.4300
63     H63    -5.4366   -8.9927   -2.9621 H        1 ZINC000003941829    0.0900
64     H64    -7.0464   -8.1947   -2.9609 H        1 ZINC000003941829    0.1000
65     H65    -5.8293  -10.0407   -5.0877 H        1 ZINC000003941829    0.0600
66     H66    -7.4675  -10.1052   -4.3702 H        1 ZINC000003941829    0.0900
67     H67    -7.3001   -6.5185   -5.4827 H        1 ZINC000003941829    0.0800
68     H68    -5.9509   -7.0647   -6.5153 H        1 ZINC000003941829    0.0800
69     H69    -1.1118    2.8673    0.2178 H        1 ZINC000003941829    0.1400
70     H70     0.4735    4.5760   -0.5723 H        1 ZINC000003941829    0.1300
71     H71     1.3777    5.8024   -2.4497 H        1 ZINC000003941829    0.4000
72     H72     0.8484    5.5591   -4.0255 H        1 ZINC000003941829    0.4000
73     H73    -0.8734    3.9561   -4.5841 H        1 ZINC000003941829    0.1300
74     H74    -2.4507    2.2448   -3.7839 H        1 ZINC000003941829    0.1400
@<TRIPOS>BOND
1     1     2     1
2     1     43    1
3     1     44    1
4     1     45    1
5     2     3     1
6     2     4     1
7     2     46    1
8     3     47    1
9     3     48    1
10    3     49    1
11    4     5     1
12    4     50    1
13    4     51    1
14    5     6     1
15    5     33    am
16    6     7     1
17    6     52    1
18    6     53    1
19    7     8     1
20    7     9     1
21    7     14    1
22    9     10    1
23    10    11    2
24    10    12    1
25    10    13    1
26    13    54    1
27    14    15    1
28    14    16    1
29    14    23    1
30    16    17    1
31    16    55    1
32    16    56    1
33    17    22    ar
34    17    18    ar
35    18    19    ar
36    18    57    1
37    19    20    ar
38    19    58    1
39    20    21    ar
40    20    59    1
41    21    22    ar
42    21    60    1
43    22    61    1
44    23    24    am
45    23    62    1
46    24    25    2
47    24    26    1
48    26    27    1
49    27    28    1
50    27    32    1
51    27    29    1
52    29    30    1
53    29    63    1
54    29    64    1
55    30    31    1
56    30    65    1
57    30    66    1
58    31    32    1
59    32    67    1
60    32    68    1
61    33    34    2
62    33    35    2
63    33    36    1
64    36    42    ar
65    36    37    ar
66    37    38    ar
67    37    69    1
68    38    39    ar
69    38    70    1
70    39    40    1
71    39    41    ar
72    40    71    1
73    40    72    1
74    41    42    ar
75    41    73    1
76    42    74    1
@<TRIPOS>SUBSTRUCTURE
1   ZINC000003941829 1     RESIDUE    1   A     ZIN   1
