@<TRIPOS>MOLECULE
ZINC000003995811
88    91    1     0     0
SMALL
USER_CHARGES
@<TRIPOS>ATOM
1      C1     -0.1113    1.6966    0.0547 C.3      1 ZINC000003995811   -0.1300
2      C2     -0.0994    0.1738   -0.0412 C.3      1 ZINC000003995811   -0.0400
3      C3     -1.5082   -0.3911    0.0106 C.3      1 ZINC000003995811   -0.1000
4      C4     -2.0573   -0.2493    1.4323 C.3      1 ZINC000003995811   -0.1100
5      C5     -1.1677   -0.9521    2.4562 C.3      1 ZINC000003995811   -0.0400
6      H6     -1.1047   -2.0112    2.1936 H        1 ZINC000003995811    0.0800
7      C7     -1.7898   -0.8214    3.8183 C.ar     1 ZINC000003995811   -0.0800
8      C8     -2.9355   -1.5652    4.0777 C.ar     1 ZINC000003995811   -0.1000
9      C9     -3.5608   -1.4886    5.3038 C.ar     1 ZINC000003995811   -0.1500
10     C10    -3.0418   -0.6630    6.2902 C.ar     1 ZINC000003995811    0.1000
11     O11    -3.6509   -0.5799    7.5021 O.3      1 ZINC000003995811   -0.5000
12     C12    -1.8993    0.0761    6.0330 C.ar     1 ZINC000003995811   -0.1500
13     C13    -1.2742   -0.0027    4.7972 C.ar     1 ZINC000003995811   -0.0600
14     C14    -0.0383    0.8240    4.5776 C.3      1 ZINC000003995811   -0.0800
15     C15     0.2392    1.0004    3.0733 C.3      1 ZINC000003995811   -0.0700
16     H16    -0.5579    1.6187    2.6583 H        1 ZINC000003995811    0.0800
17     C17     1.5754    1.7362    2.9623 C.3      1 ZINC000003995811   -0.1200
18     C18     1.4430    3.1298    3.5798 C.3      1 ZINC000003995811   -0.1200
19     C19     2.7797    3.8658    3.4688 C.3      1 ZINC000003995811   -0.1200
20     C20     2.6474    5.2594    4.0863 C.3      1 ZINC000003995811   -0.1200
21     C21     3.9841    5.9955    3.9753 C.3      1 ZINC000003995811   -0.1200
22     C22     3.8517    7.3891    4.5928 C.3      1 ZINC000003995811   -0.1200
23     C23     5.1884    8.1251    4.4817 C.3      1 ZINC000003995811   -0.1100
24     C24     5.0561    9.5187    5.0992 C.3      1 ZINC000003995811   -0.1000
25     C25     6.3928   10.2548    4.9882 C.3      1 ZINC000003995811   -0.4500
26     S26     6.2359   11.9070    5.7203 S.o      1 ZINC000003995811    1.2400
27     O27     5.2936   12.6672    4.9763 O.2      1 ZINC000003995811   -0.8400
28     C28     7.8925   12.6114    5.4967 C.3      1 ZINC000003995811   -0.4500
29     C29     7.9261   14.0286    6.0724 C.3      1 ZINC000003995811   -0.1000
30     C30     9.3234   14.6227    5.8838 C.3      1 ZINC000003995811   -0.1600
31     C31     9.3569   16.0399    6.4595 C.3      1 ZINC000003995811    0.2600
32     F32     8.4181   16.8358    5.7944 F        1 ZINC000003995811   -0.1600
33     F33     9.0488   15.9966    7.8235 F        1 ZINC000003995811   -0.1600
34     C34    10.7542   16.6340    6.2709 C.3      1 ZINC000003995811    0.4300
35     F35    11.0624   16.6773    4.9070 F        1 ZINC000003995811   -0.1600
36     F36    10.7849   17.9298    6.7973 F        1 ZINC000003995811   -0.1600
37     F37    11.6930   15.8381    6.9361 F        1 ZINC000003995811   -0.1600
38     C38     0.2601   -0.3696    2.4292 C.3      1 ZINC000003995811   -0.0500
39     H39     0.8749   -1.0314    3.0761 H        1 ZINC000003995811    0.0700
40     C40     0.7555   -0.5226    1.0315 C.3      1 ZINC000003995811   -0.0700
41     H41     0.6240   -1.6305    0.8212 H        1 ZINC000003995811    0.0600
42     C42     2.1931   -0.2548    0.6289 C.3      1 ZINC000003995811   -0.1100
43     C43     2.1486   -0.0871   -0.9152 C.3      1 ZINC000003995811   -0.1600
44     C44     0.6618   -0.2367   -1.3253 C.3      1 ZINC000003995811    0.1000
45     H45     0.4258   -1.2663   -1.5847 H        1 ZINC000003995811    0.0600
46     O46     0.3326    0.6508   -2.3942 O.3      1 ZINC000003995811   -0.5600
47     H47     0.9135    2.0680    0.0643 H        1 ZINC000003995811    0.0500
48     H48    -0.6398    2.1106   -0.8040 H        1 ZINC000003995811    0.0600
49     H49    -0.6159    1.9990    0.9723 H        1 ZINC000003995811    0.0600
50     H50    -2.1469    0.1529   -0.6901 H        1 ZINC000003995811    0.0700
51     H51    -1.4885   -1.4470   -0.2743 H        1 ZINC000003995811    0.0600
52     H52    -2.1517    0.8009    1.6952 H        1 ZINC000003995811    0.0700
53     H53    -3.0521   -0.7036    1.4712 H        1 ZINC000003995811    0.0600
54     H54    -3.3388   -2.2082    3.3095 H        1 ZINC000003995811    0.1200
55     H55    -4.4518   -2.0684    5.4954 H        1 ZINC000003995811    0.1300
56     H56    -3.3292   -1.2227    8.1489 H        1 ZINC000003995811    0.3900
57     H57    -1.4932    0.7182    6.8007 H        1 ZINC000003995811    0.1300
58     H58    -0.1704    1.8075    5.0249 H        1 ZINC000003995811    0.0800
59     H59     0.8184    0.3286    5.0322 H        1 ZINC000003995811    0.0800
60     H60     2.3443    1.1750    3.4933 H        1 ZINC000003995811    0.0600
61     H61     1.8530    1.8289    1.9124 H        1 ZINC000003995811    0.0700
62     H62     0.6740    3.6909    3.0489 H        1 ZINC000003995811    0.0600
63     H63     1.1654    3.0371    4.6298 H        1 ZINC000003995811    0.0600
64     H64     3.5487    3.3047    3.9997 H        1 ZINC000003995811    0.0600
65     H65     3.0573    3.9585    2.4188 H        1 ZINC000003995811    0.0600
66     H66     1.8784    5.8205    3.5553 H        1 ZINC000003995811    0.0600
67     H67     2.3698    5.1667    5.1363 H        1 ZINC000003995811    0.0600
68     H68     4.7530    5.4343    4.5062 H        1 ZINC000003995811    0.0600
69     H69     4.2617    6.0882    2.9253 H        1 ZINC000003995811    0.0600
70     H70     3.0828    7.9502    4.0618 H        1 ZINC000003995811    0.0600
71     H71     3.5741    7.2963    5.6427 H        1 ZINC000003995811    0.0600
72     H72     5.9574    7.5640    5.0127 H        1 ZINC000003995811    0.0600
73     H73     5.4660    8.2178    3.4317 H        1 ZINC000003995811    0.0600
74     H74     4.2871   10.0798    4.5683 H        1 ZINC000003995811    0.0700
75     H75     4.7785    9.4260    6.1492 H        1 ZINC000003995811    0.0800
76     H76     7.1618    9.6936    5.5191 H        1 ZINC000003995811    0.1200
77     H77     6.6704   10.3475    3.9382 H        1 ZINC000003995811    0.0800
78     H78     8.6240   11.9913    6.0149 H        1 ZINC000003995811    0.1200
79     H79     8.1326   12.6452    4.4340 H        1 ZINC000003995811    0.0900
80     H80     7.1947   14.6487    5.5542 H        1 ZINC000003995811    0.0800
81     H81     7.6860   13.9948    7.1351 H        1 ZINC000003995811    0.0900
82     H82    10.0548   14.0026    6.4021 H        1 ZINC000003995811    0.1200
83     H83     9.5635   14.6564    4.8211 H        1 ZINC000003995811    0.1100
84     H84     2.6218    0.6296    1.0724 H        1 ZINC000003995811    0.0800
85     H85     2.8150   -1.1251    0.8754 H        1 ZINC000003995811    0.0600
86     H86     2.5220    0.8989   -1.1907 H        1 ZINC000003995811    0.0700
87     H87     2.7524   -0.8608   -1.3884 H        1 ZINC000003995811    0.0600
88     H88     0.8354    0.4934   -3.2051 H        1 ZINC000003995811    0.3700
@<TRIPOS>BOND
1     1     2     1
2     1     47    1
3     1     48    1
4     1     49    1
5     2     40    1
6     2     44    1
7     2     3     1
8     3     4     1
9     3     50    1
10    3     51    1
11    4     5     1
12    4     52    1
13    4     53    1
14    5     6     1
15    5     38    1
16    5     7     1
17    7     13    ar
18    7     8     ar
19    8     9     ar
20    8     54    1
21    9     10    ar
22    9     55    1
23    10    11    1
24    10    12    ar
25    11    56    1
26    12    13    ar
27    12    57    1
28    13    14    1
29    14    15    1
30    14    58    1
31    14    59    1
32    15    16    1
33    15    17    1
34    15    38    1
35    17    18    1
36    17    60    1
37    17    61    1
38    18    19    1
39    18    62    1
40    18    63    1
41    19    20    1
42    19    64    1
43    19    65    1
44    20    21    1
45    20    66    1
46    20    67    1
47    21    22    1
48    21    68    1
49    21    69    1
50    22    23    1
51    22    70    1
52    22    71    1
53    23    24    1
54    23    72    1
55    23    73    1
56    24    25    1
57    24    74    1
58    24    75    1
59    25    26    1
60    25    76    1
61    25    77    1
62    26    27    2
63    26    28    1
64    28    29    1
65    28    78    1
66    28    79    1
67    29    30    1
68    29    80    1
69    29    81    1
70    30    31    1
71    30    82    1
72    30    83    1
73    31    32    1
74    31    33    1
75    31    34    1
76    34    35    1
77    34    36    1
78    34    37    1
79    38    39    1
80    38    40    1
81    40    41    1
82    40    42    1
83    42    43    1
84    42    84    1
85    42    85    1
86    43    44    1
87    43    86    1
88    43    87    1
89    44    45    1
90    44    46    1
91    46    88    1
@<TRIPOS>SUBSTRUCTURE
1   ZINC000003995811 1     RESIDUE    1   A     ZIN   1
