@<TRIPOS>MOLECULE
ZINC000242437512
81    83    1     0     0
SMALL
USER_CHARGES
@<TRIPOS>ATOM
1      C1      1.0900   -3.0056    2.9109 C.3      1 ZINC000242437512   -0.0600
2      N2      0.3602   -4.0442    2.1715 N.4      1 ZINC000242437512   -0.5100
3      H3      0.1770   -4.8260    2.7825 H        1 ZINC000242437512    0.4400
4      H4     -0.5136   -3.6673    1.8362 H        1 ZINC000242437512    0.4200
5      C5      1.1696   -4.4934    1.0308 C.3      1 ZINC000242437512    0.0300
6      H6      2.1480   -4.8182    1.3850 H        1 ZINC000242437512    0.1700
7      C7      1.3426   -3.3387    0.0421 C.3      1 ZINC000242437512   -0.1900
8      C8      0.4662   -5.6601    0.3344 C.3      1 ZINC000242437512    0.0700
9      H9      0.2692   -6.4504    1.0588 H        1 ZINC000242437512    0.1200
10     C10     1.3618   -6.2029   -0.7823 C.3      1 ZINC000242437512   -0.1700
11     C11     0.6264   -7.3304   -1.5134 C.3      1 ZINC000242437512   -0.1500
12     C12    -0.7064   -6.7948   -2.0455 C.3      1 ZINC000242437512    0.0100
13     H13    -1.2613   -7.6046   -2.5192 H        1 ZINC000242437512    0.1800
14     N14    -0.4516   -5.7335   -3.0287 N.4      1 ZINC000242437512   -0.6400
15     H15     0.0345   -6.1209   -3.8234 H        1 ZINC000242437512    0.4500
16     H16    -1.3290   -5.3377   -3.3313 H        1 ZINC000242437512    0.4300
17     H17     0.1147   -5.0129   -2.6066 H        1 ZINC000242437512    0.4300
18     C18    -1.5221   -6.2292   -0.8799 C.3      1 ZINC000242437512    0.2300
19     H19    -1.7453   -7.0269   -0.1715 H        1 ZINC000242437512    0.1200
20     O20    -2.7431   -5.6772   -1.3763 O.3      1 ZINC000242437512   -0.3600
21     C21    -3.6906   -5.3520   -0.3573 C.3      1 ZINC000242437512    0.0800
22     H22    -3.3465   -5.7476    0.5984 H        1 ZINC000242437512    0.1300
23     C23    -5.0466   -5.9689   -0.7061 C.3      1 ZINC000242437512    0.0400
24     H24    -5.7694   -5.7209    0.0712 H        1 ZINC000242437512    0.1900
25     N25    -4.9107   -7.4286   -0.8007 N.4      1 ZINC000242437512   -0.6400
26     H26    -4.5106   -7.7852    0.0542 H        1 ZINC000242437512    0.4500
27     H27    -5.8196   -7.8423   -0.9448 H        1 ZINC000242437512    0.4600
28     H28    -4.3086   -7.6607   -1.5764 H        1 ZINC000242437512    0.4300
29     C29    -5.5296   -5.4137   -2.0475 C.3      1 ZINC000242437512   -0.1700
30     C30    -5.6711   -3.8934   -1.9490 C.3      1 ZINC000242437512    0.0400
31     H31    -6.3939   -3.6454   -1.1717 H        1 ZINC000242437512    0.1800
32     N32    -6.1349   -3.3603   -3.2369 N.4      1 ZINC000242437512   -0.6300
33     H33    -7.0291   -3.7672   -3.4669 H        1 ZINC000242437512    0.4500
34     H34    -6.2282   -2.3578   -3.1719 H        1 ZINC000242437512    0.4500
35     H35    -5.4658   -3.5899   -3.9564 H        1 ZINC000242437512    0.4400
36     C36    -4.3151   -3.2765   -1.6002 C.3      1 ZINC000242437512    0.0400
37     H37    -4.4160   -2.1935   -1.5300 H        1 ZINC000242437512    0.1300
38     O38    -3.3676   -3.6017   -2.6192 O.3      1 ZINC000242437512   -0.3600
39     C39    -2.6511   -2.4746   -3.1277 C.3      1 ZINC000242437512    0.2200
40     H40    -2.1655   -1.9510   -2.3042 H        1 ZINC000242437512    0.0900
41     O41    -3.5599   -1.5895   -3.7855 O.3      1 ZINC000242437512   -0.3900
42     C42    -2.9478   -0.4102   -4.3116 C.3      1 ZINC000242437512    0.0500
43     C43    -1.9008   -0.8032   -5.3570 C.3      1 ZINC000242437512    0.0900
44     C44    -1.2005    0.4538   -5.8770 C.3      1 ZINC000242437512   -0.2100
45     O45    -2.5398   -1.4776   -6.4428 O.3      1 ZINC000242437512   -0.5400
46     C46    -0.8696   -1.7334   -4.7108 C.3      1 ZINC000242437512    0.0400
47     H47    -0.3473   -1.2021   -3.9151 H        1 ZINC000242437512    0.1700
48     N48     0.0978   -2.1745   -5.7245 N.4      1 ZINC000242437512   -0.5000
49     H49    -0.3729   -2.7396   -6.4152 H        1 ZINC000242437512    0.4500
50     H50     0.5073   -1.3682   -6.1719 H        1 ZINC000242437512    0.4500
51     C51     1.1543   -2.9668   -5.0811 C.3      1 ZINC000242437512   -0.0500
52     C52    -1.5920   -2.9507   -4.1253 C.3      1 ZINC000242437512    0.0800
53     H53    -0.8722   -3.5908   -3.6151 H        1 ZINC000242437512    0.0500
54     O54    -2.2215   -3.6842   -5.1778 O.3      1 ZINC000242437512   -0.5100
55     C55    -3.8322   -3.8318   -0.2588 C.3      1 ZINC000242437512    0.1000
56     H56    -2.8661   -3.3923   -0.0103 H        1 ZINC000242437512    0.1000
57     O57    -4.7797   -3.5066    0.7603 O.3      1 ZINC000242437512   -0.5400
58     O58    -0.7685   -5.2071   -0.2244 O.3      1 ZINC000242437512   -0.4100
59     H59     2.0340   -3.4127    3.2731 H        1 ZINC000242437512    0.1400
60     H60     1.2879   -2.1610    2.2508 H        1 ZINC000242437512    0.1300
61     H61     0.4894   -2.6723    3.7572 H        1 ZINC000242437512    0.1400
62     H62     1.8111   -2.4944    0.5478 H        1 ZINC000242437512    0.1000
63     H63     1.9730   -3.6613   -0.7866 H        1 ZINC000242437512    0.1000
64     H64     0.3669   -3.0378   -0.3394 H        1 ZINC000242437512    0.0800
65     H65     1.5926   -5.4027   -1.4855 H        1 ZINC000242437512    0.0800
66     H66     2.2860   -6.5894   -0.3527 H        1 ZINC000242437512    0.1400
67     H67     1.2356   -7.6837   -2.3453 H        1 ZINC000242437512    0.1300
68     H68     0.4392   -8.1520   -0.8219 H        1 ZINC000242437512    0.1400
69     H69    -4.8068   -5.6617   -2.8248 H        1 ZINC000242437512    0.1200
70     H70    -6.4956   -5.8532   -2.2960 H        1 ZINC000242437512    0.1300
71     H71    -3.7081    0.2174   -4.7767 H        1 ZINC000242437512    0.1500
72     H72    -2.4660    0.1406   -3.5038 H        1 ZINC000242437512    0.0900
73     H73    -0.7115    0.9663   -5.0486 H        1 ZINC000242437512    0.0900
74     H74    -0.4553    0.1730   -6.6212 H        1 ZINC000242437512    0.0800
75     H75    -1.9358    1.1176   -6.3317 H        1 ZINC000242437512    0.1100
76     H76    -3.2095   -0.9472   -6.8958 H        1 ZINC000242437512    0.4200
77     H77     0.7290   -3.8922   -4.6927 H        1 ZINC000242437512    0.0800
78     H78     1.9285   -3.2014   -5.8117 H        1 ZINC000242437512    0.1500
79     H79     1.5894   -2.3948   -4.2616 H        1 ZINC000242437512    0.1300
80     H80    -2.6988   -4.4702   -4.8785 H        1 ZINC000242437512    0.3900
81     H81    -4.9201   -2.5572    0.8784 H        1 ZINC000242437512    0.4200
@<TRIPOS>BOND
1     1     2     1
2     1     59    1
3     1     60    1
4     1     61    1
5     2     3     1
6     2     4     1
7     2     5     1
8     5     6     1
9     5     7     1
10    5     8     1
11    7     62    1
12    7     63    1
13    7     64    1
14    8     9     1
15    8     58    1
16    8     10    1
17    10    11    1
18    10    65    1
19    10    66    1
20    11    12    1
21    11    67    1
22    11    68    1
23    12    13    1
24    12    14    1
25    12    18    1
26    14    15    1
27    14    16    1
28    14    17    1
29    18    19    1
30    18    20    1
31    18    58    1
32    20    21    1
33    21    22    1
34    21    55    1
35    21    23    1
36    23    24    1
37    23    25    1
38    23    29    1
39    25    26    1
40    25    27    1
41    25    28    1
42    29    30    1
43    29    69    1
44    29    70    1
45    30    31    1
46    30    32    1
47    30    36    1
48    32    33    1
49    32    34    1
50    32    35    1
51    36    37    1
52    36    38    1
53    36    55    1
54    38    39    1
55    39    40    1
56    39    52    1
57    39    41    1
58    41    42    1
59    42    43    1
60    42    71    1
61    42    72    1
62    43    44    1
63    43    45    1
64    43    46    1
65    44    73    1
66    44    74    1
67    44    75    1
68    45    76    1
69    46    47    1
70    46    48    1
71    46    52    1
72    48    49    1
73    48    50    1
74    48    51    1
75    51    77    1
76    51    78    1
77    51    79    1
78    52    53    1
79    52    54    1
80    54    80    1
81    55    56    1
82    55    57    1
83    57    81    1
@<TRIPOS>SUBSTRUCTURE
1   ZINC000242437512 1     RESIDUE    1   A     ZIN   1
