@<TRIPOS>MOLECULE
ZINC000100055899
62    64    1     0     0
SMALL
USER_CHARGES
@<TRIPOS>ATOM
1      C1     -5.5444    3.0360   -2.8601 C.3      1 ZINC000100055899   -0.1500
2      C2     -4.9747    1.9707   -1.9213 C.3      1 ZINC000100055899    0.0800
3      C3     -4.9423    2.5152   -0.4919 C.3      1 ZINC000100055899   -0.1700
4      O4     -5.8123    0.7856   -1.9689 O.3      1 ZINC000100055899   -0.3400
5      C5     -5.2115   -0.3946   -1.7503 C.2      1 ZINC000100055899    0.4600
6      O6     -4.0248   -0.4361   -1.5266 O.2      1 ZINC000100055899   -0.5000
7      C7     -6.0169   -1.6679   -1.7839 C.3      1 ZINC000100055899    0.1000
8      H8     -6.4737   -1.7830   -2.7668 H        1 ZINC000100055899    0.1000
9      C9     -7.1116   -1.6072   -0.7167 C.3      1 ZINC000100055899   -0.1500
10     N10    -5.1353   -2.8121   -1.5165 N.3      1 ZINC000100055899   -1.0100
11     P11    -5.6125   -4.1611   -2.4026 P.3      1 ZINC000100055899    2.3200
12     O12    -6.9964   -4.5312   -2.0309 O.2      1 ZINC000100055899   -0.9600
13     C13    -4.4929   -5.5533   -2.0401 C.3      1 ZINC000100055899   -0.5300
14     O14    -4.5273   -5.8404   -0.6407 O.3      1 ZINC000100055899   -0.3200
15     C15    -5.7049   -6.5307   -0.2177 C.3      1 ZINC000100055899    0.0600
16     H16    -6.2864   -6.8259   -1.0911 H        1 ZINC000100055899    0.0800
17     C17    -6.5463   -5.6089    0.6674 C.3      1 ZINC000100055899   -0.1700
18     C18    -5.3082   -7.7771    0.5759 C.3      1 ZINC000100055899    0.1000
19     N19    -4.6002   -8.7109   -0.3033 N.pl3    1 ZINC000100055899   -0.4700
20     C20    -5.1531   -9.7545   -0.9841 C.2      1 ZINC000100055899    0.2400
21     N21    -4.2361  -10.3748   -1.6683 N.2      1 ZINC000100055899   -0.4600
22     C22    -3.0399   -9.7705   -1.4706 C.ar     1 ZINC000100055899   -0.1200
23     C23    -1.7322   -9.9921   -1.9344 C.ar     1 ZINC000100055899    0.5100
24     N24    -1.4556  -11.0348   -2.8013 N.pl3    1 ZINC000100055899   -0.8200
25     N25    -0.7671   -9.1768   -1.5216 N.ar     1 ZINC000100055899   -0.5900
26     C26    -1.0219   -8.1791   -0.6949 C.ar     1 ZINC000100055899    0.3600
27     N27    -2.2306   -7.9339   -0.2345 N.ar     1 ZINC000100055899   -0.5400
28     C28    -3.2601   -8.6920   -0.5970 C.ar     1 ZINC000100055899    0.3100
29     O29    -5.5522   -3.8192   -3.9748 O.3      1 ZINC000100055899   -0.6400
30     C30    -6.0311   -4.8084   -4.7742 C.ar     1 ZINC000100055899    0.0800
31     C31    -5.1623   -5.7415   -5.3212 C.ar     1 ZINC000100055899   -0.1500
32     C32    -5.6516   -6.7463   -6.1332 C.ar     1 ZINC000100055899   -0.1000
33     C33    -7.0059   -6.8222   -6.4013 C.ar     1 ZINC000100055899   -0.1100
34     C34    -7.8737   -5.8932   -5.8578 C.ar     1 ZINC000100055899   -0.1000
35     C35    -7.3902   -4.8901   -5.0402 C.ar     1 ZINC000100055899   -0.1100
36     H36    -4.9155    3.9256   -2.8244 H        1 ZINC000100055899    0.0800
37     H37    -5.5674    2.6480   -3.8785 H        1 ZINC000100055899    0.0700
38     H38    -6.5560    3.2933   -2.5464 H        1 ZINC000100055899    0.0700
39     H39    -3.9630    1.7133   -2.2351 H        1 ZINC000100055899    0.0900
40     H40    -5.9539    2.7726   -0.1781 H        1 ZINC000100055899    0.0700
41     H41    -4.5364    1.7563    0.1770 H        1 ZINC000100055899    0.0600
42     H42    -4.3134    3.4048   -0.4561 H        1 ZINC000100055899    0.0800
43     H43    -7.7657   -0.7581   -0.9151 H        1 ZINC000100055899    0.0800
44     H44    -7.6942   -2.5281   -0.7410 H        1 ZINC000100055899    0.1000
45     H45    -6.6548   -1.4920    0.2662 H        1 ZINC000100055899    0.0700
46     H46    -4.1720   -2.5781   -1.7047 H        1 ZINC000100055899    0.3800
47     H47    -4.8134   -6.4324   -2.5993 H        1 ZINC000100055899    0.0900
48     H48    -3.4767   -5.2878   -2.3316 H        1 ZINC000100055899    0.1100
49     H49    -6.7364   -4.6737    0.1407 H        1 ZINC000100055899    0.0900
50     H50    -7.4942   -6.0942    0.8998 H        1 ZINC000100055899    0.0700
51     H51    -6.0076   -5.4021    1.5921 H        1 ZINC000100055899    0.0600
52     H52    -4.6566   -7.4901    1.4013 H        1 ZINC000100055899    0.1100
53     H53    -6.2038   -8.2572    0.9701 H        1 ZINC000100055899    0.1100
54     H54    -6.1979  -10.0268   -0.9590 H        1 ZINC000100055899    0.2200
55     H55    -2.1686  -11.6229   -3.0957 H        1 ZINC000100055899    0.4200
56     H56    -0.5487  -11.1775   -3.1145 H        1 ZINC000100055899    0.4100
57     H57    -0.2080   -7.5406   -0.3846 H        1 ZINC000100055899    0.2000
58     H58    -4.1043   -5.6823   -5.1126 H        1 ZINC000100055899    0.1300
59     H59    -4.9757   -7.4730   -6.5592 H        1 ZINC000100055899    0.1300
60     H60    -7.3864   -7.6083   -7.0366 H        1 ZINC000100055899    0.1300
61     H61    -8.9311   -5.9544   -6.0690 H        1 ZINC000100055899    0.1400
62     H62    -8.0685   -4.1647   -4.6159 H        1 ZINC000100055899    0.1500
@<TRIPOS>BOND
1     1     2     1
2     1     36    1
3     1     37    1
4     1     38    1
5     2     3     1
6     2     4     1
7     2     39    1
8     3     40    1
9     3     41    1
10    3     42    1
11    4     5     1
12    5     6     2
13    5     7     1
14    7     8     1
15    7     9     1
16    7     10    1
17    9     43    1
18    9     44    1
19    9     45    1
20    10    11    1
21    10    46    1
22    11    12    2
23    11    13    1
24    11    29    1
25    13    14    1
26    13    47    1
27    13    48    1
28    14    15    1
29    15    16    1
30    15    17    1
31    15    18    1
32    17    49    1
33    17    50    1
34    17    51    1
35    18    19    1
36    18    52    1
37    18    53    1
38    19    28    1
39    19    20    1
40    20    21    2
41    20    54    1
42    21    22    1
43    22    28    ar
44    22    23    ar
45    23    24    1
46    23    25    ar
47    24    55    1
48    24    56    1
49    25    26    ar
50    26    27    ar
51    26    57    1
52    27    28    ar
53    29    30    1
54    30    35    ar
55    30    31    ar
56    31    32    ar
57    31    58    1
58    32    33    ar
59    32    59    1
60    33    34    ar
61    33    60    1
62    34    35    ar
63    34    61    1
64    35    62    1
@<TRIPOS>SUBSTRUCTURE
1   ZINC000100055899 1     RESIDUE    1   A     ZIN   1
