@<TRIPOS>MOLECULE
ZINC000001530817
36   36    0    0    0
SMALL
USER_CHARGES
NO_NAME
@<TRIPOS>ATOM
1 C1        0.0157     1.5145    -0.0213 C.3    1 <0>      -0.1500
2 C2        0.0278    -0.0154    -0.0217 C.3    1 <0>      -0.1200
3 C3        0.7650    -0.5200     1.2204 C.3    1 <0>       0.0600
4 N4        0.7765    -1.9889     1.2200 N.3    1 <0>      -0.6700
5 C5        1.4778    -2.5102     2.4009 C.3    1 <0>       0.0700
6 H6        1.2908    -1.8562     3.2526 H      1 <0>       0.0700
7 C7        2.9807    -2.5637     2.1193 C.3    1 <0>      -0.1400
8 C8        0.9754    -3.8965     2.7122 C.2    1 <0>       0.5100
9 O9        0.1176    -4.4006     2.0186 O.2    1 <0>      -0.5100
10 N10       1.4792    -4.5761     3.7613 N.am   1 <0>      -0.6700
11 C11       0.9480    -5.8235     4.1072 C.ar   1 <0>       0.1400
12 C12       0.4908    -6.6836     3.1177 C.ar   1 <0>      -0.1200
13 C13      -0.0332    -7.9143     3.4625 C.ar   1 <0>      -0.1100
14 C14      -0.1031    -8.2899     4.7912 C.ar   1 <0>      -0.1300
15 C15       0.3510    -7.4353     5.7793 C.ar   1 <0>      -0.1000
16 C16       0.8820    -6.2063     5.4407 C.ar   1 <0>      -0.1100
17 C17       1.3766    -5.2757     6.5180 C.3    1 <0>      -0.1200
18 H18       1.0405     1.8859    -0.0311 H      1 <0>       0.0600
19 H19      -0.5095     1.8740    -0.9062 H      1 <0>       0.0600
20 H20      -0.4924     1.8736     0.8737 H      1 <0>       0.0500
21 H21      -0.9970    -0.3868    -0.0119 H      1 <0>       0.0600
22 H22       0.5359    -0.3745    -0.9167 H      1 <0>       0.0700
23 H23       1.7897    -0.1486     1.2106 H      1 <0>       0.0700
24 H24       0.2569    -0.1609     2.1154 H      1 <0>       0.0300
25 H25      -0.1609    -2.3579     1.1640 H      1 <0>       0.3600
26 H26       3.3440    -1.5610     1.8941 H      1 <0>       0.0700
27 H27       3.5010    -2.9505     2.9955 H      1 <0>       0.0600
28 H28       3.1677    -3.2177     1.2676 H      1 <0>       0.0700
29 H29       2.2102    -4.2004     4.2766 H      1 <0>       0.4100
30 H30       0.5444    -6.3905     2.0796 H      1 <0>       0.1400
31 H31      -0.3890    -8.5837     2.6933 H      1 <0>       0.1300
32 H32      -0.5135    -9.2525     5.0582 H      1 <0>       0.1200
33 H33       0.2944    -7.7312     6.8164 H      1 <0>       0.1300
34 H34       2.4307    -5.4731     6.7128 H      1 <0>       0.0700
35 H35       1.2549    -4.2433     6.1903 H      1 <0>       0.0600
36 H36       0.8020    -5.4376     7.4300 H      1 <0>       0.0700
@<TRIPOS>BOND
1    1    2 1
2    1   18 1
3    1   19 1
4    1   20 1
5    2    3 1
6    2   21 1
7    2   22 1
8    3    4 1
9    3   23 1
10    3   24 1
11    4    5 1
12    4   25 1
13    5    6 1
14    5    7 1
15    5    8 1
16    7   26 1
17    7   27 1
18    7   28 1
19    8    9 2
20    8   10 am
21   10   11 1
22   10   29 1
23   11   16 ar
24   11   12 ar
25   12   13 ar
26   12   30 1
27   13   14 ar
28   13   31 1
29   14   15 ar
30   14   32 1
31   15   16 ar
32   15   33 1
33   16   17 1
34   17   34 1
35   17   35 1
36   17   36 1
