@<TRIPOS>MOLECULE
ZINC000019632670
59    62    1     0     0
SMALL
USER_CHARGES
@<TRIPOS>ATOM
1      C1     -0.0128    1.4154   -0.0534 C.3      1 ZINC000019632670   -0.1700
2      C2     -0.0893   -0.1055    0.0947 C.3      1 ZINC000019632670    0.1200
3      N3      0.6591   -0.5185    1.2845 N.am     1 ZINC000019632670   -0.6200
4      C4      2.0859   -0.8622    1.2874 C.3      1 ZINC000019632670    0.1000
5      C5      2.3215   -1.6332    2.6052 C.3      1 ZINC000019632670   -0.0900
6      H6      3.2969   -1.3933    3.0284 H        1 ZINC000019632670    0.1200
7      C7      2.1767   -3.1411    2.3907 C.3      1 ZINC000019632670   -0.1500
8      C8      3.2927   -3.6345    1.4677 C.3      1 ZINC000019632670   -0.0100
9      N9      3.1536   -5.0823    1.2618 N.4      1 ZINC000019632670   -0.3800
10     H10     3.1355   -5.5492    2.1561 H        1 ZINC000019632670    0.4200
11     C11     4.2913   -5.5767    0.4741 C.3      1 ZINC000019632670   -0.0400
12     C12     4.1442   -7.0854    0.2611 C.3      1 ZINC000019632670    0.0400
13     O13     2.8990   -7.3504   -0.3910 O.3      1 ZINC000019632670   -0.3600
14     C14     1.7608   -6.8659    0.3270 C.3      1 ZINC000019632670    0.0400
15     C15     1.9033   -5.3568    0.5403 C.3      1 ZINC000019632670   -0.0500
16     C16     1.1820   -1.0883    3.4972 C.3      1 ZINC000019632670    0.0100
17     C17     0.6391   -2.1790    4.3842 C.ar     1 ZINC000019632670   -0.0700
18     C18     1.4273   -2.7100    5.3881 C.ar     1 ZINC000019632670   -0.1200
19     C19     0.9293   -3.7104    6.2016 C.ar     1 ZINC000019632670   -0.1200
20     C20    -0.3570   -4.1797    6.0116 C.ar     1 ZINC000019632670   -0.1100
21     C21    -1.1455   -3.6482    5.0083 C.ar     1 ZINC000019632670   -0.1200
22     C22    -0.6490   -2.6447    4.1975 C.ar     1 ZINC000019632670   -0.1100
23     C23     1.6704    0.0707    4.3274 C.ar     1 ZINC000019632670   -0.0700
24     C24     2.8145   -0.0605    5.0921 C.ar     1 ZINC000019632670   -0.1100
25     C25     3.2625    1.0026    5.8536 C.ar     1 ZINC000019632670   -0.1100
26     C26     2.5666    2.1971    5.8502 C.ar     1 ZINC000019632670   -0.1100
27     C27     1.4230    2.3285    5.0848 C.ar     1 ZINC000019632670   -0.1100
28     C28     0.9774    1.2667    4.3199 C.ar     1 ZINC000019632670   -0.1100
29     C29     0.1285   -0.6259    2.5149 C.2      1 ZINC000019632670    0.5300
30     O30    -1.0283   -0.3931    2.7952 O.2      1 ZINC000019632670   -0.5000
31     H31     1.0292    1.7185   -0.1562 H        1 ZINC000019632670    0.0600
32     H32    -0.5695    1.7227   -0.9387 H        1 ZINC000019632670    0.0700
33     H33    -0.4434    1.8885    0.8291 H        1 ZINC000019632670    0.0600
34     H34    -1.1312   -0.4086    0.1975 H        1 ZINC000019632670    0.0900
35     H35     0.3414   -0.5786   -0.7878 H        1 ZINC000019632670    0.0800
36     H36     2.3231   -1.4953    0.4324 H        1 ZINC000019632670    0.0800
37     H37     2.6921    0.0435    1.2667 H        1 ZINC000019632670    0.0900
38     H38     2.2461   -3.6530    3.3505 H        1 ZINC000019632670    0.1000
39     H39     1.2089   -3.3521    1.9356 H        1 ZINC000019632670    0.0900
40     H40     3.2232   -3.1227    0.5078 H        1 ZINC000019632670    0.1300
41     H41     4.2604   -3.4235    1.9228 H        1 ZINC000019632670    0.1400
42     H42     4.3105   -5.0732   -0.4925 H        1 ZINC000019632670    0.1400
43     H43     5.2193   -5.3737    1.0086 H        1 ZINC000019632670    0.1400
44     H44     4.9642   -7.4470   -0.3593 H        1 ZINC000019632670    0.1400
45     H45     4.1653   -7.5929    1.2255 H        1 ZINC000019632670    0.0800
46     H46     0.8558   -7.0687   -0.2457 H        1 ZINC000019632670    0.1400
47     H47     1.7003   -7.3658    1.2937 H        1 ZINC000019632670    0.0800
48     H48     1.0587   -4.9906    1.1239 H        1 ZINC000019632670    0.1400
49     H49     1.9234   -4.8533   -0.4262 H        1 ZINC000019632670    0.1400
50     H50     2.4322   -2.3433    5.5365 H        1 ZINC000019632670    0.1300
51     H51     1.5453   -4.1257    6.9855 H        1 ZINC000019632670    0.1300
52     H52    -0.7458   -4.9619    6.6468 H        1 ZINC000019632670    0.1300
53     H53    -2.1504   -4.0150    4.8596 H        1 ZINC000019632670    0.1300
54     H54    -1.2650   -2.2294    3.4136 H        1 ZINC000019632670    0.1400
55     H55     3.3582   -0.9937    5.0948 H        1 ZINC000019632670    0.1200
56     H56     4.1560    0.8999    6.4516 H        1 ZINC000019632670    0.1300
57     H57     2.9162    3.0274    6.4457 H        1 ZINC000019632670    0.1300
58     H58     0.8792    3.2616    5.0824 H        1 ZINC000019632670    0.1300
59     H59     0.0840    1.3694    3.7219 H        1 ZINC000019632670    0.1300
@<TRIPOS>BOND
1     1     2     1
2     1     31    1
3     1     32    1
4     1     33    1
5     2     3     1
6     2     34    1
7     2     35    1
8     3     29    am
9     3     4     1
10    4     5     1
11    4     36    1
12    4     37    1
13    5     6     1
14    5     7     1
15    5     16    1
16    7     8     1
17    7     38    1
18    7     39    1
19    8     9     1
20    8     40    1
21    8     41    1
22    9     10    1
23    9     15    1
24    9     11    1
25    11    12    1
26    11    42    1
27    11    43    1
28    12    13    1
29    12    44    1
30    12    45    1
31    13    14    1
32    14    15    1
33    14    46    1
34    14    47    1
35    15    48    1
36    15    49    1
37    16    17    1
38    16    23    1
39    16    29    1
40    17    22    ar
41    17    18    ar
42    18    19    ar
43    18    50    1
44    19    20    ar
45    19    51    1
46    20    21    ar
47    20    52    1
48    21    22    ar
49    21    53    1
50    22    54    1
51    23    28    ar
52    23    24    ar
53    24    25    ar
54    24    55    1
55    25    26    ar
56    25    56    1
57    26    27    ar
58    26    57    1
59    27    28    ar
60    27    58    1
61    28    59    1
62    29    30    2
@<TRIPOS>SUBSTRUCTURE
1   ZINC000019632670 1     RESIDUE    1   A     ZIN   1
