@<TRIPOS>MOLECULE
ZINC000000000506
41    42    1     0     0
SMALL
USER_CHARGES
@<TRIPOS>ATOM
1      C1     -3.5006   -1.4339   -1.8137 C.3      1 ZINC000000000506   -0.1700
2      C2     -2.1583   -1.3205   -1.0883 C.3      1 ZINC000000000506    0.1000
3      N3     -1.0837   -1.1625   -2.0715 N.am     1 ZINC000000000506   -0.6000
4      C4     -0.6822    0.1767   -2.5090 C.3      1 ZINC000000000506    0.1000
5      C5      0.4025    0.7149   -1.5737 C.3      1 ZINC000000000506   -0.1900
6      C6     -0.4645   -2.2493   -2.5735 C.2      1 ZINC000000000506    0.5400
7      O7     -0.8697   -3.3590   -2.2990 O.2      1 ZINC000000000506   -0.5200
8      C8      0.7312   -2.0856   -3.4760 C.3      1 ZINC000000000506   -0.0700
9      C9      1.9936   -1.6122   -2.8028 C.ar     1 ZINC000000000506   -0.0600
10     C10     2.6560   -0.4973   -3.2816 C.ar     1 ZINC000000000506   -0.1100
11     C11     3.8140   -0.0630   -2.6640 C.ar     1 ZINC000000000506   -0.1100
12     C12     4.3094   -0.7434   -1.5674 C.ar     1 ZINC000000000506   -0.1000
13     C13     3.6465   -1.8577   -1.0880 C.ar     1 ZINC000000000506   -0.1100
14     C14     2.4862   -2.2895   -1.7030 C.ar     1 ZINC000000000506   -0.1000
15     C15     0.8766   -3.0666   -4.6411 C.3      1 ZINC000000000506   -0.1300
16     C16     0.4755   -1.6146   -4.9091 C.3      1 ZINC000000000506   -0.2000
17     H17     1.2206   -0.9627   -5.3651 H        1 ZINC000000000506    0.1500
18     C18    -0.9745   -1.3459   -5.3168 C.3      1 ZINC000000000506    0.0200
19     N19    -1.2576   -2.0193   -6.5913 N.4      1 ZINC000000000506   -0.6300
20     H20    -1.1166   -3.0128   -6.4853 H        1 ZINC000000000506    0.4400
21     H21    -2.2138   -1.8422   -6.8601 H        1 ZINC000000000506    0.4400
22     H22    -0.6368   -1.6656   -7.3037 H        1 ZINC000000000506    0.4400
23     H23    -3.6742   -0.5315   -2.3999 H        1 ZINC000000000506    0.0600
24     H24    -3.4838   -2.2996   -2.4758 H        1 ZINC000000000506    0.0600
25     H25    -4.3001   -1.5515   -1.0822 H        1 ZINC000000000506    0.0800
26     H26    -2.1751   -0.4548   -0.4262 H        1 ZINC000000000506    0.0900
27     H27    -1.9846   -2.2229   -0.5022 H        1 ZINC000000000506    0.0900
28     H28    -0.2925    0.1253   -3.5256 H        1 ZINC000000000506    0.0700
29     H29    -1.5459    0.8412   -2.4841 H        1 ZINC000000000506    0.0800
30     H30     0.7012    1.7114   -1.8991 H        1 ZINC000000000506    0.0700
31     H31     0.0128    0.7664   -0.5570 H        1 ZINC000000000506    0.0600
32     H32     1.2661    0.0504   -1.5985 H        1 ZINC000000000506    0.0800
33     H33     2.2689    0.0342   -4.1383 H        1 ZINC000000000506    0.1200
34     H34     4.3318    0.8076   -3.0386 H        1 ZINC000000000506    0.1300
35     H35     5.2145   -0.4045   -1.0854 H        1 ZINC000000000506    0.1300
36     H36     4.0338   -2.3895   -0.2315 H        1 ZINC000000000506    0.1300
37     H37     1.9683   -3.1601   -1.3284 H        1 ZINC000000000506    0.1200
38     H38     1.8855   -3.3699   -4.9208 H        1 ZINC000000000506    0.1300
39     H39     0.1073   -3.8304   -4.7548 H        1 ZINC000000000506    0.1100
40     H40    -1.6451   -1.7281   -4.5471 H        1 ZINC000000000506    0.1300
41     H41    -1.1268   -0.2727   -5.4312 H        1 ZINC000000000506    0.1500
@<TRIPOS>BOND
1     1     2     1
2     1     23    1
3     1     24    1
4     1     25    1
5     2     3     1
6     2     26    1
7     2     27    1
8     3     4     1
9     3     6     am
10    4     5     1
11    4     28    1
12    4     29    1
13    5     30    1
14    5     31    1
15    5     32    1
16    6     7     2
17    6     8     1
18    8     16    1
19    8     9     1
20    8     15    1
21    9     14    ar
22    9     10    ar
23    10    11    ar
24    10    33    1
25    11    12    ar
26    11    34    1
27    12    13    ar
28    12    35    1
29    13    14    ar
30    13    36    1
31    14    37    1
32    15    16    1
33    15    38    1
34    15    39    1
35    16    17    1
36    16    18    1
37    18    19    1
38    18    40    1
39    18    41    1
40    19    20    1
41    19    21    1
42    19    22    1
@<TRIPOS>SUBSTRUCTURE
1   ZINC000000000506 1     RESIDUE    1   A     ZIN   1
