@<TRIPOS>MOLECULE
ZINC000014210876
76    79    1     0     0
SMALL
USER_CHARGES
@<TRIPOS>ATOM
1      C1      2.6957   -6.9252  -10.8397 C.3      1 ZINC000014210876    0.0200
2      O2      2.5929   -5.5005  -10.7996 O.3      1 ZINC000014210876   -0.2700
3      C3      2.4247   -4.9295   -9.5812 C.ar     1 ZINC000014210876    0.1600
4      C4      2.4689   -5.7083   -8.4346 C.ar     1 ZINC000014210876   -0.2300
5      C5      2.2980   -5.1254   -7.1946 C.ar     1 ZINC000014210876   -0.0800
6      C6      2.0814   -3.7613   -7.0843 C.ar     1 ZINC000014210876   -0.1700
7      C7      1.8971   -3.1390   -5.7242 C.3      1 ZINC000014210876    0.1300
8      N8      3.2066   -2.8062   -5.1579 N.am     1 ZINC000014210876   -0.5700
9      C9      3.7931   -3.6431   -4.2792 C.2      1 ZINC000014210876    0.4900
10     O10     4.8450   -3.3365   -3.7591 O.2      1 ZINC000014210876   -0.5500
11     C11     3.1419   -4.9599   -3.9429 C.3      1 ZINC000014210876    0.0800
12     H12     2.5295   -5.2874   -4.7830 H        1 ZINC000014210876    0.1100
13     N13     4.1793   -5.9642   -3.6723 N.3      1 ZINC000014210876   -0.8100
14     C14     2.2600   -4.7911   -2.7041 C.3      1 ZINC000014210876   -0.0800
15     C15     1.5516   -6.0886   -2.4112 C.ar     1 ZINC000014210876   -0.0400
16     C16     0.3341   -6.3591   -3.0102 C.ar     1 ZINC000014210876   -0.0800
17     C17    -0.2793   -5.3561   -3.9529 C.3      1 ZINC000014210876   -0.1300
18     C18    -0.3193   -7.5452   -2.7467 C.ar     1 ZINC000014210876   -0.0600
19     C19     0.2504   -8.4732   -1.8737 C.ar     1 ZINC000014210876   -0.1400
20     C20    -0.4440   -9.7466   -1.5871 C.2      1 ZINC000014210876    0.5600
21     N21     0.1088  -10.6407   -0.7436 N.am     1 ZINC000014210876   -0.8500
22     O22    -1.5136   -9.9871   -2.1122 O.2      1 ZINC000014210876   -0.5400
23     C23     1.4789   -8.1942   -1.2728 C.ar     1 ZINC000014210876   -0.1000
24     C24     2.1244   -7.0066   -1.5489 C.ar     1 ZINC000014210876   -0.0600
25     C25     3.4511   -6.7038   -0.9015 C.3      1 ZINC000014210876   -0.1200
26     C26     3.8785   -1.5638   -5.5466 C.3      1 ZINC000014210876    0.2200
27     H27     4.7930   -1.4480   -4.9649 H        1 ZINC000014210876    0.1100
28     C28     4.2246   -1.6157   -7.0361 C.3      1 ZINC000014210876   -0.1800
29     C29     2.9644   -0.3949   -5.2837 C.2      1 ZINC000014210876    0.2200
30     N30     1.6632   -0.4491   -5.2272 N.2      1 ZINC000014210876   -0.4600
31     C31     1.1788    0.7838   -4.9744 C.2      1 ZINC000014210876    0.0400
32     C32    -0.2520    1.1500   -4.8331 C.ar     1 ZINC000014210876    0.0000
33     C33    -0.6207    2.4858   -4.6853 C.ar     1 ZINC000014210876   -0.1100
34     C34    -1.9532    2.8207   -4.5547 C.ar     1 ZINC000014210876   -0.1200
35     C35    -2.9219    1.8335   -4.5704 C.ar     1 ZINC000014210876   -0.1200
36     C36    -2.5616    0.5060   -4.7169 C.ar     1 ZINC000014210876   -0.1200
37     C37    -1.2326    0.1601   -4.8536 C.ar     1 ZINC000014210876   -0.0900
38     C38     2.2367    1.6302   -4.8720 C.2      1 ZINC000014210876   -0.0300
39     N39     3.3616    0.8775   -5.0627 N.pl3    1 ZINC000014210876   -0.5600
40     C40     2.0343   -2.9711   -8.2117 C.ar     1 ZINC000014210876   -0.0200
41     C41     2.2110   -3.5466   -9.4740 C.ar     1 ZINC000014210876   -0.1700
42     C42     2.1619   -2.7090  -10.6830 C.2      1 ZINC000014210876    0.5200
43     O43     1.9661   -1.5053  -10.5857 O.co2    1 ZINC000014210876   -0.6900
44     O44     2.3170   -3.2164  -11.7854 O.co2    1 ZINC000014210876   -0.6700
45     H45     3.5998   -7.2391  -10.3178 H        1 ZINC000014210876    0.0400
46     H46     1.8247   -7.3662  -10.3550 H        1 ZINC000014210876    0.0500
47     H47     2.7412   -7.2571  -11.8770 H        1 ZINC000014210876    0.0900
48     H48     2.6369   -6.7724   -8.5117 H        1 ZINC000014210876    0.1200
49     H49     2.3329   -5.7368   -6.3050 H        1 ZINC000014210876    0.1100
50     H50     1.3004   -2.2316   -5.8177 H        1 ZINC000014210876    0.1400
51     H51     1.3860   -3.8438   -5.0683 H        1 ZINC000014210876    0.0800
52     H52     4.7351   -6.1409   -4.4957 H        1 ZINC000014210876    0.3500
53     H53     4.7608   -5.6835   -2.8970 H        1 ZINC000014210876    0.3500
54     H54     2.8803   -4.5152   -1.8514 H        1 ZINC000014210876    0.0800
55     H55     1.5237   -4.0083   -2.8862 H        1 ZINC000014210876    0.0900
56     H56     0.0647   -5.5539   -4.9681 H        1 ZINC000014210876    0.0800
57     H57    -1.3655   -5.4387   -3.9148 H        1 ZINC000014210876    0.0700
58     H58     0.0192   -4.3502   -3.6577 H        1 ZINC000014210876    0.0700
59     H59    -1.2698   -7.7549   -3.2146 H        1 ZINC000014210876    0.1300
60     H60     0.9623  -10.4487   -0.3246 H        1 ZINC000014210876    0.4000
61     H61    -0.3468  -11.4761   -0.5556 H        1 ZINC000014210876    0.4000
62     H62     1.9249   -8.9079   -0.5960 H        1 ZINC000014210876    0.1200
63     H63     4.2572   -7.0781   -1.5325 H        1 ZINC000014210876    0.0900
64     H64     3.5573   -5.6261   -0.7775 H        1 ZINC000014210876    0.0700
65     H65     3.4984   -7.1881    0.0739 H        1 ZINC000014210876    0.0600
66     H66     3.3086   -1.5579   -7.6241 H        1 ZINC000014210876    0.1000
67     H67     4.8718   -0.7757   -7.2881 H        1 ZINC000014210876    0.0600
68     H68     4.7398   -2.5504   -7.2570 H        1 ZINC000014210876    0.0700
69     H69     0.1349    3.2573   -4.6725 H        1 ZINC000014210876    0.1200
70     H70    -2.2400    3.8556   -4.4397 H        1 ZINC000014210876    0.1200
71     H71    -3.9634    2.1001   -4.4676 H        1 ZINC000014210876    0.1200
72     H72    -3.3221   -0.2608   -4.7281 H        1 ZINC000014210876    0.1200
73     H73    -0.9524   -0.8767   -4.9679 H        1 ZINC000014210876    0.1300
74     H74     2.1967    2.6911   -4.6737 H        1 ZINC000014210876    0.1800
75     H75     4.2766    1.1990   -5.0485 H        1 ZINC000014210876    0.4200
76     H76     1.8652   -1.9084   -8.1206 H        1 ZINC000014210876    0.1400
@<TRIPOS>BOND
1     1     2     1
2     1     45    1
3     1     46    1
4     1     47    1
5     2     3     1
6     3     41    ar
7     3     4     ar
8     4     5     ar
9     4     48    1
10    5     6     ar
11    5     49    1
12    6     7     1
13    6     40    ar
14    7     8     1
15    7     50    1
16    7     51    1
17    8     9     am
18    8     26    1
19    9     10    2
20    9     11    1
21    11    12    1
22    11    13    1
23    11    14    1
24    13    52    1
25    13    53    1
26    14    15    1
27    14    54    1
28    14    55    1
29    15    24    ar
30    15    16    ar
31    16    17    1
32    16    18    ar
33    17    56    1
34    17    57    1
35    17    58    1
36    18    19    ar
37    18    59    1
38    19    20    1
39    19    23    ar
40    20    21    am
41    20    22    2
42    21    60    1
43    21    61    1
44    23    24    ar
45    23    62    1
46    24    25    1
47    25    63    1
48    25    64    1
49    25    65    1
50    26    27    1
51    26    28    1
52    26    29    1
53    28    66    1
54    28    67    1
55    28    68    1
56    29    39    1
57    29    30    2
58    30    31    1
59    31    32    1
60    31    38    2
61    32    37    ar
62    32    33    ar
63    33    34    ar
64    33    69    1
65    34    35    ar
66    34    70    1
67    35    36    ar
68    35    71    1
69    36    37    ar
70    36    72    1
71    37    73    1
72    38    39    1
73    38    74    1
74    39    75    1
75    40    41    ar
76    40    76    1
77    41    42    1
78    42    43    ar
79    42    44    ar
@<TRIPOS>SUBSTRUCTURE
1   ZINC000014210876 1     RESIDUE    1   A     ZIN   1
