@<TRIPOS>MOLECULE
ZINC000017285872
47    47    1     0     0
SMALL
USER_CHARGES
@<TRIPOS>ATOM
1      C1      0.9629   -2.6146   -4.5626 C.3      1 ZINC000017285872   -0.1500
2      C2      0.5721   -2.1361   -3.1629 C.3      1 ZINC000017285872   -0.1200
3      C3     -0.8125   -2.6804   -2.8059 C.3      1 ZINC000017285872   -0.1300
4      C4     -1.2033   -2.2019   -1.4062 C.3      1 ZINC000017285872   -0.1200
5      C5     -2.6372   -2.6391   -1.0996 C.3      1 ZINC000017285872   -0.0900
6      H6     -3.3007   -2.2887   -1.8902 H        1 ZINC000017285872    0.0800
7      C7     -3.0776   -2.0412    0.2381 C.3      1 ZINC000017285872   -0.1200
8      C8     -3.1539   -0.5180    0.1156 C.3      1 ZINC000017285872   -0.1500
9      C9     -2.6991   -4.1658   -1.0210 C.3      1 ZINC000017285872    0.0700
10     O10    -4.0563   -4.5793   -0.8506 O.3      1 ZINC000017285872   -0.3500
11     C11    -4.2860   -5.9060   -0.7627 C.2      1 ZINC000017285872    0.4900
12     O12    -3.3580   -6.6897   -0.8291 O.2      1 ZINC000017285872   -0.5000
13     C13    -5.6091   -6.3867   -0.5931 C.2      1 ZINC000017285872   -0.2200
14     C14    -5.8265   -7.7006   -0.3668 C.2      1 ZINC000017285872    0.0200
15     C15    -4.7049   -8.5800   -0.0086 C.ar     1 ZINC000017285872   -0.1300
16     C16    -3.7473   -8.1543    0.9196 C.ar     1 ZINC000017285872   -0.0100
17     C17    -2.6989   -8.9821    1.2520 C.ar     1 ZINC000017285872   -0.1600
18     C18    -2.5899  -10.2388    0.6673 C.ar     1 ZINC000017285872    0.1500
19     O19    -1.5542  -11.0512    0.9985 O.3      1 ZINC000017285872   -0.3200
20     C20    -1.5023  -12.3289    0.3607 C.3      1 ZINC000017285872    0.0300
21     C21    -3.5382  -10.6664   -0.2551 C.ar     1 ZINC000017285872   -0.2200
22     C22    -4.5936   -9.8486   -0.5901 C.ar     1 ZINC000017285872   -0.0500
23     H23     1.9493   -2.2268   -4.8169 H        1 ZINC000017285872    0.0500
24     H24     0.9850   -3.7042   -4.5811 H        1 ZINC000017285872    0.0500
25     H25     0.2327   -2.2537   -5.2870 H        1 ZINC000017285872    0.0500
26     H26     1.3022   -2.4970   -2.4385 H        1 ZINC000017285872    0.0600
27     H27     0.5500   -1.0465   -3.1444 H        1 ZINC000017285872    0.0600
28     H28    -1.5427   -2.3195   -3.5303 H        1 ZINC000017285872    0.0600
29     H29    -0.7904   -3.7700   -2.8244 H        1 ZINC000017285872    0.0600
30     H30    -0.5259   -2.6367   -0.6712 H        1 ZINC000017285872    0.0700
31     H31    -1.1377   -1.1148   -1.3623 H        1 ZINC000017285872    0.0800
32     H32    -4.0585   -2.4337    0.5062 H        1 ZINC000017285872    0.0700
33     H33    -2.3561   -2.3079    1.0104 H        1 ZINC000017285872    0.0600
34     H34    -3.5542   -0.0988    1.0387 H        1 ZINC000017285872    0.0500
35     H35    -2.1560   -0.1174   -0.0626 H        1 ZINC000017285872    0.0600
36     H36    -3.8059   -0.2527   -0.7167 H        1 ZINC000017285872    0.0500
37     H37    -2.3018   -4.5934   -1.9415 H        1 ZINC000017285872    0.0700
38     H38    -2.1053   -4.5104   -0.1743 H        1 ZINC000017285872    0.0700
39     H39    -6.4430   -5.7023   -0.6447 H        1 ZINC000017285872    0.1500
40     H40    -6.8246   -8.1048   -0.4492 H        1 ZINC000017285872    0.1500
41     H41    -3.8307   -7.1780    1.3738 H        1 ZINC000017285872    0.1200
42     H42    -1.9596   -8.6546    1.9680 H        1 ZINC000017285872    0.1300
43     H43    -0.6281  -12.8759    0.7137 H        1 ZINC000017285872    0.1000
44     H44    -2.4044  -12.8917    0.6007 H        1 ZINC000017285872    0.0600
45     H45    -1.4349  -12.1937   -0.7188 H        1 ZINC000017285872    0.0600
46     H46    -3.4487  -11.6433   -0.7067 H        1 ZINC000017285872    0.1300
47     H47    -5.3297  -10.1817   -1.3067 H        1 ZINC000017285872    0.1300
@<TRIPOS>BOND
1     1     2     1
2     1     23    1
3     1     24    1
4     1     25    1
5     2     3     1
6     2     26    1
7     2     27    1
8     3     4     1
9     3     28    1
10    3     29    1
11    4     5     1
12    4     30    1
13    4     31    1
14    5     6     1
15    5     7     1
16    5     9     1
17    7     8     1
18    7     32    1
19    7     33    1
20    8     34    1
21    8     35    1
22    8     36    1
23    9     10    1
24    9     37    1
25    9     38    1
26    10    11    1
27    11    12    2
28    11    13    1
29    13    14    2
30    13    39    1
31    14    15    1
32    14    40    1
33    15    22    ar
34    15    16    ar
35    16    17    ar
36    16    41    1
37    17    18    ar
38    17    42    1
39    18    19    1
40    18    21    ar
41    19    20    1
42    20    43    1
43    20    44    1
44    20    45    1
45    21    22    ar
46    21    46    1
47    22    47    1
@<TRIPOS>SUBSTRUCTURE
1   ZINC000017285872 1     RESIDUE    1   A     ZIN   1
