@<TRIPOS>MOLECULE
ZINC000100014475
32    33    1     0     0
SMALL
USER_CHARGES
@<TRIPOS>ATOM
1      O1      1.7182   -0.0967   -2.3774 O.2      1 ZINC000100014475   -0.5600
2      C2      1.6655    1.1153   -2.4244 C.2      1 ZINC000100014475    0.4000
3      C3      1.2235    1.7971   -3.6931 C.3      1 ZINC000100014475   -0.1600
4      C4      1.9016    3.1654   -3.7977 C.3      1 ZINC000100014475   -0.1000
5      C5      1.5287    4.0074   -2.5751 C.3      1 ZINC000100014475   -0.1600
6      C6      1.9662    3.2929   -1.3230 C.2      1 ZINC000100014475    0.4100
7      O7      2.2751    3.9334   -0.3391 O.2      1 ZINC000100014475   -0.5000
8      C8      2.0139    1.8793   -1.2857 C.2      1 ZINC000100014475   -0.4900
9      C9      2.4198    1.2309   -0.1147 C.2      1 ZINC000100014475    0.3800
10     O10     2.8959    1.9473    0.9209 O.3      1 ZINC000100014475   -0.5600
11     C11     2.3264   -0.2338   -0.0147 C.ar     1 ZINC000100014475    0.0700
12     C12     3.4889   -1.0098    0.0511 C.ar     1 ZINC000100014475   -0.1100
13     C13     3.3927   -2.3820    0.1452 C.ar     1 ZINC000100014475   -0.0200
14     C14     2.1507   -2.9921    0.1745 C.ar     1 ZINC000100014475   -0.2100
15     C15     2.0550   -4.4926    0.2774 C.3      1 ZINC000100014475    0.5200
16     F16     3.3417   -5.0394    0.3287 F        1 ZINC000100014475   -0.1800
17     F17     1.3555   -4.8367    1.4391 F        1 ZINC000100014475   -0.1800
18     F18     1.3792   -4.9945   -0.8399 F        1 ZINC000100014475   -0.1700
19     C19     0.9956   -2.2314    0.1103 C.ar     1 ZINC000100014475    0.0000
20     C20     1.0744   -0.8582    0.0209 C.ar     1 ZINC000100014475   -0.0100
21     N21    -0.1618   -0.0469   -0.0471 N.pl3    1 ZINC000100014475    0.0300
22     O22    -1.2504   -0.5882    0.0265 O.2      1 ZINC000100014475   -0.2000
23     O23    -0.0903    1.1621   -0.1767 O.2      1 ZINC000100014475   -0.1100
24     H24     1.5037    1.1859   -4.5510 H        1 ZINC000100014475    0.0700
25     H25     0.1415    1.9279   -3.6775 H        1 ZINC000100014475    0.0800
26     H26     2.9831    3.0339   -3.8331 H        1 ZINC000100014475    0.0600
27     H27     1.5656    3.6699   -4.7036 H        1 ZINC000100014475    0.0600
28     H28     2.0269    4.9750   -2.6345 H        1 ZINC000100014475    0.0800
29     H29     0.4490    4.1550   -2.5511 H        1 ZINC000100014475    0.0800
30     H30     4.4588   -0.5353    0.0280 H        1 ZINC000100014475    0.1500
31     H31     4.2890   -2.9825    0.1957 H        1 ZINC000100014475    0.1500
32     H32     0.0303   -2.7151    0.1341 H        1 ZINC000100014475    0.1600
@<TRIPOS>BOND
1     1     2     2
2     2     8     1
3     2     3     1
4     3     4     1
5     3     24    1
6     3     25    1
7     4     5     1
8     4     26    1
9     4     27    1
10    5     6     1
11    5     28    1
12    5     29    1
13    6     7     2
14    6     8     1
15    8     9     2
16    9     10    1
17    9     11    1
18    11    20    ar
19    11    12    ar
20    12    13    ar
21    12    30    1
22    13    14    ar
23    13    31    1
24    14    15    1
25    14    19    ar
26    15    16    1
27    15    17    1
28    15    18    1
29    19    20    ar
30    19    32    1
31    20    21    1
32    21    22    2
33    21    23    2
@<TRIPOS>SUBSTRUCTURE
1   ZINC000100014475 1     RESIDUE    1   A     ZIN   1
