@<TRIPOS>MOLECULE
ZINC000049933061
84    86    1     0     0
SMALL
USER_CHARGES
@<TRIPOS>ATOM
1      C1      1.3698   -7.0886   -2.1619 C.3      1 ZINC000049933061   -0.1600
2      C2     -0.1393   -7.3210   -2.2604 C.3      1 ZINC000049933061   -0.1200
3      C3     -0.8773   -6.1937   -1.5356 C.3      1 ZINC000049933061   -0.1200
4      C4     -2.3863   -6.4261   -1.6341 C.3      1 ZINC000049933061   -0.0500
5      C5     -3.1133   -5.3157   -0.9202 C.2      1 ZINC000049933061    0.1000
6      C6     -3.5248   -4.1516   -1.4966 C.2      1 ZINC000049933061   -0.2500
7      C7     -3.3508   -3.7451   -2.8983 C.2      1 ZINC000049933061    0.4800
8      O8     -2.4000   -3.0565   -3.2186 O.2      1 ZINC000049933061   -0.4300
9      C9     -4.3296   -4.1723   -3.9176 C.ar     1 ZINC000049933061   -0.1900
10     C10    -5.4829   -4.8633   -3.5355 C.ar     1 ZINC000049933061   -0.0200
11     C11    -6.3934   -5.2596   -4.4893 C.ar     1 ZINC000049933061   -0.1600
12     C12    -6.1668   -4.9736   -5.8307 C.ar     1 ZINC000049933061    0.1600
13     O13    -7.0665   -5.3663   -6.7677 O.3      1 ZINC000049933061   -0.3100
14     C14    -6.7715   -5.0399   -8.1273 C.3      1 ZINC000049933061    0.0600
15     C15    -7.8913   -5.5597   -9.0311 C.3      1 ZINC000049933061   -0.1500
16     C16    -7.5754   -5.2103  -10.4868 C.3      1 ZINC000049933061   -0.0100
17     N17    -8.6867   -5.6405  -11.3458 N.4      1 ZINC000049933061   -0.3800
18     H18    -8.8782   -6.6178  -11.1838 H        1 ZINC000049933061    0.4200
19     C19    -9.8834   -4.8484  -11.0318 C.3      1 ZINC000049933061   -0.0200
20     C20   -11.0717   -5.3788  -11.8365 C.3      1 ZINC000049933061   -0.1500
21     C21   -12.3180   -4.5539  -11.5094 C.3      1 ZINC000049933061   -0.1200
22     C22   -13.5063   -5.0843  -12.3141 C.3      1 ZINC000049933061   -0.1600
23     C23    -8.3226   -5.4398  -12.7547 C.3      1 ZINC000049933061   -0.0200
24     C24    -7.1766   -6.3836  -13.1247 C.3      1 ZINC000049933061   -0.1500
25     C25    -6.7341   -6.1091  -14.5634 C.3      1 ZINC000049933061   -0.1200
26     C26    -5.5881   -7.0529  -14.9333 C.3      1 ZINC000049933061   -0.1600
27     C27    -5.0212   -4.2861   -6.2148 C.ar     1 ZINC000049933061   -0.2200
28     C28    -4.1083   -3.8817   -5.2667 C.ar     1 ZINC000049933061   -0.0200
29     C29    -4.1828   -3.3835   -0.4203 C.ar     1 ZINC000049933061   -0.0800
30     C30    -4.8024   -2.1405   -0.3566 C.ar     1 ZINC000049933061   -0.0900
31     C31    -5.3337   -1.7024    0.8453 C.ar     1 ZINC000049933061    0.1400
32     N32    -5.9594   -0.4534    0.9190 N.am     1 ZINC000049933061   -1.0600
33     S33    -7.4199   -0.3030    1.6850 S.o2     1 ZINC000049933061    2.6100
34     C34    -8.5391   -1.3727    0.7397 C.3      1 ZINC000049933061   -0.6700
35     O35    -7.1930   -0.8400    2.9809 O.2      1 ZINC000049933061   -0.9400
36     O36    -7.7688    1.0632    1.5089 O.2      1 ZINC000049933061   -0.9500
37     C37    -5.2457   -2.5046    1.9799 C.ar     1 ZINC000049933061   -0.1300
38     C38    -4.6320   -3.7371    1.9212 C.ar     1 ZINC000049933061   -0.0700
39     C39    -4.0946   -4.1910    0.7230 C.ar     1 ZINC000049933061    0.0500
40     O40    -3.4560   -5.3279    0.3726 O.3      1 ZINC000049933061   -0.1800
41     H41     1.8955   -7.8918   -2.6783 H        1 ZINC000049933061    0.0600
42     H42     1.6213   -6.1339   -2.6238 H        1 ZINC000049933061    0.0600
43     H43     1.6675   -7.0747   -1.1135 H        1 ZINC000049933061    0.0600
44     H44    -0.4371   -7.3350   -3.3089 H        1 ZINC000049933061    0.0600
45     H45    -0.3908   -8.2758   -1.7985 H        1 ZINC000049933061    0.0700
46     H46    -0.5795   -6.1797   -0.4872 H        1 ZINC000049933061    0.0700
47     H47    -0.6258   -5.2390   -1.9975 H        1 ZINC000049933061    0.0700
48     H48    -2.6841   -6.4401   -2.6826 H        1 ZINC000049933061    0.1000
49     H49    -2.6378   -7.3808   -1.1722 H        1 ZINC000049933061    0.1000
50     H50    -5.6593   -5.0865   -2.4937 H        1 ZINC000049933061    0.1400
51     H51    -7.2848   -5.7936   -4.1949 H        1 ZINC000049933061    0.1400
52     H52    -6.6926   -3.9578   -8.2323 H        1 ZINC000049933061    0.0800
53     H53    -5.8276   -5.5027   -8.4155 H        1 ZINC000049933061    0.0800
54     H54    -7.9702   -6.6418   -8.9261 H        1 ZINC000049933061    0.1000
55     H55    -8.8351   -5.0969   -8.7429 H        1 ZINC000049933061    0.1000
56     H56    -7.4398   -4.1328  -10.5806 H        1 ZINC000049933061    0.1300
57     H57    -6.6616   -5.7195  -10.7926 H        1 ZINC000049933061    0.1400
58     H58   -10.1018   -4.9268   -9.9668 H        1 ZINC000049933061    0.1300
59     H59    -9.7064   -3.8045  -11.2905 H        1 ZINC000049933061    0.1300
60     H60   -10.8533   -5.3005  -12.9015 H        1 ZINC000049933061    0.0900
61     H61   -11.2487   -6.4228  -11.5778 H        1 ZINC000049933061    0.0900
62     H62   -12.5365   -4.6323  -10.4444 H        1 ZINC000049933061    0.0700
63     H63   -12.1410   -3.5100  -11.7681 H        1 ZINC000049933061    0.0700
64     H64   -13.6834   -6.1283  -12.0554 H        1 ZINC000049933061    0.0600
65     H65   -14.3943   -4.4966  -12.0811 H        1 ZINC000049933061    0.0700
66     H66   -13.2879   -5.0059  -13.3791 H        1 ZINC000049933061    0.0600
67     H67    -9.1853   -5.6507  -13.3866 H        1 ZINC000049933061    0.1400
68     H68    -8.0060   -4.4076  -12.9048 H        1 ZINC000049933061    0.1300
69     H69    -6.3375   -6.2187  -12.4488 H        1 ZINC000049933061    0.0900
70     H70    -7.5144   -7.4164  -13.0392 H        1 ZINC000049933061    0.0900
71     H71    -7.5731   -6.2740  -15.2393 H        1 ZINC000049933061    0.0700
72     H72    -6.3962   -5.0764  -14.6488 H        1 ZINC000049933061    0.0700
73     H73    -5.9259   -8.0857  -14.8479 H        1 ZINC000049933061    0.0600
74     H74    -5.2728   -6.8574  -15.9582 H        1 ZINC000049933061    0.0700
75     H75    -4.7490   -6.8880  -14.2574 H        1 ZINC000049933061    0.0600
76     H76    -4.8490   -4.0656   -7.2579 H        1 ZINC000049933061    0.1300
77     H77    -3.2185   -3.3477   -5.5660 H        1 ZINC000049933061    0.1400
78     H78    -4.8687   -1.5205   -1.2384 H        1 ZINC000049933061    0.1300
79     H79    -5.5378    0.3245    0.5215 H        1 ZINC000049933061    0.4300
80     H80    -8.2204   -2.4103    0.8393 H        1 ZINC000049933061    0.1300
81     H81    -9.5539   -1.2660    1.1231 H        1 ZINC000049933061    0.1400
82     H82    -8.5156   -1.0847   -0.3113 H        1 ZINC000049933061    0.1300
83     H83    -5.6618   -2.1578    2.9142 H        1 ZINC000049933061    0.1700
84     H84    -4.5688   -4.3509    2.8076 H        1 ZINC000049933061    0.1500
@<TRIPOS>BOND
1     1     2     1
2     1     41    1
3     1     42    1
4     1     43    1
5     2     3     1
6     2     44    1
7     2     45    1
8     3     4     1
9     3     46    1
10    3     47    1
11    4     5     1
12    4     48    1
13    4     49    1
14    5     40    1
15    5     6     2
16    6     7     1
17    6     29    1
18    7     8     2
19    7     9     1
20    9     28    ar
21    9     10    ar
22    10    11    ar
23    10    50    1
24    11    12    ar
25    11    51    1
26    12    13    1
27    12    27    ar
28    13    14    1
29    14    15    1
30    14    52    1
31    14    53    1
32    15    16    1
33    15    54    1
34    15    55    1
35    16    17    1
36    16    56    1
37    16    57    1
38    17    18    1
39    17    19    1
40    17    23    1
41    19    20    1
42    19    58    1
43    19    59    1
44    20    21    1
45    20    60    1
46    20    61    1
47    21    22    1
48    21    62    1
49    21    63    1
50    22    64    1
51    22    65    1
52    22    66    1
53    23    24    1
54    23    67    1
55    23    68    1
56    24    25    1
57    24    69    1
58    24    70    1
59    25    26    1
60    25    71    1
61    25    72    1
62    26    73    1
63    26    74    1
64    26    75    1
65    27    28    ar
66    27    76    1
67    28    77    1
68    29    39    ar
69    29    30    ar
70    30    31    ar
71    30    78    1
72    31    32    1
73    31    37    ar
74    32    33    am
75    32    79    1
76    33    34    1
77    33    35    2
78    33    36    2
79    34    80    1
80    34    81    1
81    34    82    1
82    37    38    ar
83    37    83    1
84    38    39    ar
85    38    84    1
86    39    40    1
@<TRIPOS>SUBSTRUCTURE
1   ZINC000049933061 1     RESIDUE    1   A     ZIN   1
