@<TRIPOS>MOLECULE
ZINC000000402909
31    32    1     0     0
SMALL
USER_CHARGES
@<TRIPOS>ATOM
1      C1     -1.0942    2.5485   -0.9104 C.3      1 ZINC000000402909   -0.1100
2      C2     -0.6653    1.0890   -0.7466 C.3      1 ZINC000000402909   -0.1400
3      H3     -0.1567    0.7560   -1.6513 H        1 ZINC000000402909    0.0700
4      C4      0.2704    0.9693    0.4287 C.2      1 ZINC000000402909    0.5000
5      O5      0.5668    1.9595    1.0753 O.co2    1 ZINC000000402909   -0.6900
6      O6      0.7311   -0.1178    0.7329 O.co2    1 ZINC000000402909   -0.6900
7      C7     -1.8817    0.2315   -0.5096 C.ar     1 ZINC000000402909    0.0100
8      C8     -2.6932    0.4711    0.5837 C.ar     1 ZINC000000402909   -0.1400
9      C9     -3.8102   -0.3139    0.8040 C.ar     1 ZINC000000402909   -0.0800
10     C10    -4.1180   -1.3395   -0.0683 C.ar     1 ZINC000000402909   -0.1700
11     C11    -3.3053   -1.5819   -1.1668 C.ar     1 ZINC000000402909    0.1100
12     O12    -3.6062   -2.5900   -2.0268 O.3      1 ZINC000000402909   -0.2700
13     C13    -2.7765   -2.7965   -3.0830 C.ar     1 ZINC000000402909    0.0900
14     C14    -1.6983   -3.6614   -2.9611 C.ar     1 ZINC000000402909   -0.1200
15     C15    -0.8564   -3.8695   -4.0362 C.ar     1 ZINC000000402909   -0.1100
16     C16    -1.0870   -3.2165   -5.2330 C.ar     1 ZINC000000402909   -0.1200
17     C17    -2.1604   -2.3537   -5.3570 C.ar     1 ZINC000000402909   -0.1100
18     C18    -3.0092   -2.1472   -4.2870 C.ar     1 ZINC000000402909   -0.1300
19     C19    -2.1880   -0.7898   -1.3882 C.ar     1 ZINC000000402909   -0.1900
20     H20    -0.2144    3.1687   -1.0818 H        1 ZINC000000402909    0.0600
21     H21    -1.7710    2.6350   -1.7604 H        1 ZINC000000402909    0.0300
22     H22    -1.6028    2.8814   -0.0057 H        1 ZINC000000402909    0.0500
23     H23    -2.4543    1.2726    1.2670 H        1 ZINC000000402909    0.1200
24     H24    -4.4422   -0.1250    1.6592 H        1 ZINC000000402909    0.1300
25     H25    -4.9903   -1.9525    0.1044 H        1 ZINC000000402909    0.1200
26     H26    -1.5174   -4.1711   -2.0263 H        1 ZINC000000402909    0.1300
27     H27    -0.0171   -4.5426   -3.9419 H        1 ZINC000000402909    0.1300
28     H28    -0.4273   -3.3803   -6.0723 H        1 ZINC000000402909    0.1300
29     H29    -2.3381   -1.8447   -6.2928 H        1 ZINC000000402909    0.1300
30     H30    -3.8475   -1.4732   -4.3843 H        1 ZINC000000402909    0.1300
31     H31    -1.5541   -0.9761   -2.2425 H        1 ZINC000000402909    0.1200
@<TRIPOS>BOND
1     1     2     1
2     1     20    1
3     1     21    1
4     1     22    1
5     2     3     1
6     2     4     1
7     2     7     1
8     4     5     ar
9     4     6     ar
10    7     19    ar
11    7     8     ar
12    8     9     ar
13    8     23    1
14    9     10    ar
15    9     24    1
16    10    11    ar
17    10    25    1
18    11    12    1
19    11    19    ar
20    12    13    1
21    13    18    ar
22    13    14    ar
23    14    15    ar
24    14    26    1
25    15    16    ar
26    15    27    1
27    16    17    ar
28    16    28    1
29    17    18    ar
30    17    29    1
31    18    30    1
32    19    31    1
@<TRIPOS>SUBSTRUCTURE
1   ZINC000000402909 1     RESIDUE    1   A     ZIN   1
