@<TRIPOS>MOLECULE
ZINC000084441937
54    57    1     0     0
SMALL
USER_CHARGES
@<TRIPOS>ATOM
1      C1      0.9417    0.0756   -1.3356 C.3      1 ZINC000084441937    0.0300
2      N2      0.0925    0.0191   -0.1382 N.3      1 ZINC000084441937   -0.5100
3      C3     -0.0538    1.3498    0.4666 C.3      1 ZINC000084441937    0.0300
4      C4     -1.2190   -0.5645   -0.4501 C.3      1 ZINC000084441937    0.0900
5      H5     -1.6576   -0.0209   -1.2868 H        1 ZINC000084441937    0.0400
6      C6     -2.1122   -0.4203    0.7455 C.2      1 ZINC000084441937    0.3600
7      O7     -2.7092    0.7597    0.9695 O.3      1 ZINC000084441937   -0.6300
8      C8     -2.3402   -1.4549    1.6182 C.2      1 ZINC000084441937   -0.5000
9      C9     -3.2024   -1.2456    2.7922 C.2      1 ZINC000084441937    0.5900
10     N10    -3.5035   -2.2813    3.6004 N.am     1 ZINC000084441937   -0.8800
11     O11    -3.6435   -0.1379    3.0332 O.2      1 ZINC000084441937   -0.5800
12     C12    -1.7303   -2.7635    1.3878 C.2      1 ZINC000084441937    0.4000
13     O13    -2.0891   -3.7331    2.0238 O.2      1 ZINC000084441937   -0.5200
14     C14    -0.6411   -2.8876    0.3389 C.3      1 ZINC000084441937    0.0800
15     O15     0.6142   -2.4650    0.8754 O.3      1 ZINC000084441937   -0.5100
16     C16    -0.5884   -4.3292   -0.0923 C.2      1 ZINC000084441937    0.3900
17     O17    -0.0252   -5.1273    0.6317 O.2      1 ZINC000084441937   -0.5000
18     C18    -1.1504   -4.7948   -1.2747 C.2      1 ZINC000084441937   -0.4600
19     C19    -1.0261   -6.1361   -1.5932 C.2      1 ZINC000084441937    0.3300
20     O20    -0.2946   -6.9579   -0.8095 O.3      1 ZINC000084441937   -0.6200
21     C21    -1.6984   -6.6582   -2.7925 C.ar     1 ZINC000084441937   -0.0800
22     C22    -1.3435   -7.9051   -3.3250 C.ar     1 ZINC000084441937    0.1300
23     O23    -0.3790   -8.6522   -2.7315 O.3      1 ZINC000084441937   -0.4800
24     C24    -1.9862   -8.3698   -4.4632 C.ar     1 ZINC000084441937   -0.1600
25     C25    -2.9666   -7.6067   -5.0663 C.ar     1 ZINC000084441937   -0.1200
26     C26    -3.3223   -6.3744   -4.5401 C.ar     1 ZINC000084441937   -0.1400
27     C27    -2.6994   -5.9003   -3.4080 C.ar     1 ZINC000084441937   -0.0800
28     C28    -3.0963   -4.5720   -2.8160 C.3      1 ZINC000084441937    0.1800
29     C29    -3.7075   -3.6899   -3.9066 C.3      1 ZINC000084441937   -0.1800
30     O30    -4.0566   -4.7809   -1.7786 O.3      1 ZINC000084441937   -0.5300
31     C31    -1.8637   -3.8832   -2.2368 C.3      1 ZINC000084441937    0.0200
32     H32    -1.1795   -3.6420   -3.0503 H        1 ZINC000084441937    0.0500
33     C33    -2.2693   -2.5876   -1.5303 C.3      1 ZINC000084441937   -0.1000
34     C34    -1.0294   -2.0142   -0.8506 C.3      1 ZINC000084441937   -0.0500
35     H35    -0.2093   -2.0464   -1.5680 H        1 ZINC000084441937    0.0700
36     H36     1.8951    0.5398   -1.0833 H        1 ZINC000084441937    0.0600
37     H37     1.1161   -0.9348   -1.7053 H        1 ZINC000084441937    0.0700
38     H38     0.4440    0.6638   -2.1066 H        1 ZINC000084441937    0.0100
39     H39    -0.6039    1.9997   -0.2139 H        1 ZINC000084441937    0.0200
40     H40    -0.5987    1.2637    1.4067 H        1 ZINC000084441937    0.0800
41     H41     0.9325    1.7734    0.6558 H        1 ZINC000084441937    0.0500
42     H42    -3.0865   -3.1453    3.4573 H        1 ZINC000084441937    0.4000
43     H43    -4.1372   -2.1627    4.3252 H        1 ZINC000084441937    0.3700
44     H44     0.9430   -3.0232    1.5933 H        1 ZINC000084441937    0.3600
45     H45    -0.7113   -9.2583   -2.0553 H        1 ZINC000084441937    0.3900
46     H46    -1.7191   -9.3302   -4.8787 H        1 ZINC000084441937    0.1200
47     H47    -3.4597   -7.9725   -5.9548 H        1 ZINC000084441937    0.1200
48     H48    -4.0899   -5.7851   -5.0196 H        1 ZINC000084441937    0.1200
49     H49    -4.5883   -4.1812   -4.3200 H        1 ZINC000084441937    0.0500
50     H50    -3.9945   -2.7294   -3.4786 H        1 ZINC000084441937    0.0700
51     H51    -2.9751   -3.5307   -4.6980 H        1 ZINC000084441937    0.0600
52     H52    -4.8681   -5.2149   -2.0755 H        1 ZINC000084441937    0.3600
53     H53    -2.6542   -1.8748   -2.2597 H        1 ZINC000084441937    0.0500
54     H54    -3.0332   -2.7992   -0.7821 H        1 ZINC000084441937    0.0800
@<TRIPOS>BOND
1     1     2     1
2     1     36    1
3     1     37    1
4     1     38    1
5     2     3     1
6     2     4     1
7     3     39    1
8     3     40    1
9     3     41    1
10    4     5     1
11    4     34    1
12    4     6     1
13    6     7     1
14    6     8     2
15    8     9     1
16    8     12    1
17    9     10    am
18    9     11    2
19    10    42    1
20    10    43    1
21    12    13    2
22    12    14    1
23    14    34    1
24    14    15    1
25    14    16    1
26    15    44    1
27    16    17    2
28    16    18    1
29    18    31    1
30    18    19    2
31    19    20    1
32    19    21    1
33    21    27    ar
34    21    22    ar
35    22    23    1
36    22    24    ar
37    23    45    1
38    24    25    ar
39    24    46    1
40    25    26    ar
41    25    47    1
42    26    27    ar
43    26    48    1
44    27    28    1
45    28    29    1
46    28    30    1
47    28    31    1
48    29    49    1
49    29    50    1
50    29    51    1
51    30    52    1
52    31    32    1
53    31    33    1
54    33    34    1
55    33    53    1
56    33    54    1
57    34    35    1
@<TRIPOS>SUBSTRUCTURE
1   ZINC000084441937 1     RESIDUE    1   A     ZIN   1
