@<TRIPOS>MOLECULE
ZINC000000599985
13   13    0    0    0
SMALL
USER_CHARGES
NO_NAME
@<TRIPOS>ATOM
1 N1       -0.0168     1.3875     0.0097 N.pl3  1 <0>      -0.8700
2 C2        0.0021    -0.0041     0.0020 C.ar   1 <0>       0.2500
3 C3       -1.1853    -0.7358     0.0035 C.ar   1 <0>      -0.2500
4 C4       -1.1234    -2.1133    -0.0047 C.ar   1 <0>       0.1400
5 N5        0.0391    -2.7384    -0.0140 N.ar   1 <0>      -0.5300
6 C6        1.1843    -2.0820    -0.0157 C.ar   1 <0>       0.1400
7 C7        1.2088    -0.7032    -0.0133 C.ar   1 <0>      -0.2500
8 H8        0.8166     1.8838     0.0044 H      1 <0>       0.4000
9 H9       -0.8633     1.8610     0.0163 H      1 <0>       0.4000
10 H10      -2.1399    -0.2306     0.0114 H      1 <0>       0.1300
11 H11      -2.0377    -2.6881    -0.0032 H      1 <0>       0.1500
12 H12       2.1139    -2.6317    -0.0234 H      1 <0>       0.1500
13 H13       2.1493    -0.1723    -0.0151 H      1 <0>       0.1300
@<TRIPOS>BOND
1    1    2 1
2    1    8 1
3    1    9 1
4    2    7 ar
5    2    3 ar
6    3    4 ar
7    3   10 1
8    4    5 ar
9    4   11 1
10    5    6 ar
11    6    7 ar
12    6   12 1
13    7   13 1
