@<TRIPOS>MOLECULE
ZINC000012661824
49    49    1     0     0
SMALL
USER_CHARGES
@<TRIPOS>ATOM
1      C1     -0.1852    1.4276    0.3238 C.3      1 ZINC000012661824   -0.1000
2      C2     -0.1297   -0.0783    0.3120 C.2      1 ZINC000012661824   -0.0800
3      C3      0.0621   -0.7814    1.5081 C.2      1 ZINC000012661824   -0.0700
4      C4      0.1998   -0.0967    2.6945 C.2      1 ZINC000012661824   -0.1600
5      C5      0.3917   -0.8004    3.8916 C.2      1 ZINC000012661824   -0.0900
6      C6      0.5282   -0.1216    5.0679 C.2      1 ZINC000012661824   -0.1200
7      C7      0.7345   -0.8781    6.3549 C.3      1 ZINC000012661824   -0.1100
8      C8      0.4763    1.2832    5.0789 C.2      1 ZINC000012661824   -0.1000
9      C9      0.6123    1.9591    6.2501 C.2      1 ZINC000012661824   -0.1300
10     C10     0.4574    3.3679    6.2775 C.2      1 ZINC000012661824   -0.0900
11     C11     1.2425    4.0971    5.5023 C.2      1 ZINC000012661824   -0.1100
12     C12     2.2452    3.3830    4.6330 C.3      1 ZINC000012661824   -0.1300
13     C13     1.1908    5.5959    5.4390 C.3      1 ZINC000012661824   -0.0800
14     C14    -0.1246    6.1030    6.0338 C.3      1 ZINC000012661824   -0.1200
15     C15    -0.3286    5.4401    7.4015 C.3      1 ZINC000012661824   -0.1100
16     C16    -0.5924    3.9476    7.1803 C.3      1 ZINC000012661824   -0.0200
17     C17    -1.9738    3.7648    6.5485 C.3      1 ZINC000012661824   -0.1400
18     C18    -0.5530    3.2206    8.5260 C.3      1 ZINC000012661824   -0.1400
19     C19    -0.2673   -0.7629   -0.8743 C.2      1 ZINC000012661824   -0.1300
20     C20    -0.3167   -0.0600   -2.0889 C.2      1 ZINC000012661824    0.4400
21     O21    -0.1236    1.2598   -2.1040 O.co2    1 ZINC000012661824   -0.6900
22     O22    -0.5567   -0.7120   -3.2275 O.co2    1 ZINC000012661824   -0.7100
23     H23     0.7992    1.8294    0.0841 H        1 ZINC000012661824    0.0700
24     H24    -0.9077    1.7703   -0.4170 H        1 ZINC000012661824    0.1000
25     H25    -0.4874    1.7723    1.3127 H        1 ZINC000012661824    0.0300
26     H26     0.1019   -1.8606    1.4997 H        1 ZINC000012661824    0.1100
27     H27     0.1599    0.9825    2.7029 H        1 ZINC000012661824    0.1200
28     H28     0.4315   -1.8797    3.8832 H        1 ZINC000012661824    0.1100
29     H29     1.8015   -1.0218    6.5248 H        1 ZINC000012661824    0.0600
30     H30     0.3080   -0.3108    7.1821 H        1 ZINC000012661824    0.0600
31     H31     0.2432   -1.8488    6.2885 H        1 ZINC000012661824    0.0600
32     H32     0.3285    1.8253    4.1566 H        1 ZINC000012661824    0.1200
33     H33     0.8382    1.4228    7.1599 H        1 ZINC000012661824    0.1200
34     H34     1.8070    3.1940    3.6530 H        1 ZINC000012661824    0.0700
35     H35     3.1347    4.0028    4.5199 H        1 ZINC000012661824    0.0600
36     H36     2.5191    2.4356    5.0973 H        1 ZINC000012661824    0.0700
37     H37     2.0261    6.0105    6.0034 H        1 ZINC000012661824    0.0700
38     H38     1.2648    5.9166    4.3999 H        1 ZINC000012661824    0.0700
39     H39    -0.0786    7.1853    6.1547 H        1 ZINC000012661824    0.0600
40     H40    -0.9506    5.8404    5.3728 H        1 ZINC000012661824    0.0700
41     H41     0.5667    5.5715    8.0093 H        1 ZINC000012661824    0.0600
42     H42    -1.1845    5.8916    7.9032 H        1 ZINC000012661824    0.0600
43     H43    -2.0078    4.2865    5.5920 H        1 ZINC000012661824    0.0600
44     H44    -2.1634    2.7031    6.3902 H        1 ZINC000012661824    0.0600
45     H45    -2.7344    4.1746    7.2131 H        1 ZINC000012661824    0.0500
46     H46    -1.3659    3.5800    9.1570 H        1 ZINC000012661824    0.0500
47     H47    -0.6660    2.1487    8.3634 H        1 ZINC000012661824    0.0600
48     H48     0.4008    3.4152    9.0163 H        1 ZINC000012661824    0.0500
49     H49    -0.3374   -1.8406   -0.8708 H        1 ZINC000012661824    0.1100
@<TRIPOS>BOND
1     1     2     1
2     1     23    1
3     1     24    1
4     1     25    1
5     2     3     1
6     2     19    2
7     3     4     2
8     3     26    1
9     4     5     1
10    4     27    1
11    5     6     2
12    5     28    1
13    6     7     1
14    6     8     1
15    7     29    1
16    7     30    1
17    7     31    1
18    8     9     2
19    8     32    1
20    9     10    1
21    9     33    1
22    10    16    1
23    10    11    2
24    11    12    1
25    11    13    1
26    12    34    1
27    12    35    1
28    12    36    1
29    13    14    1
30    13    37    1
31    13    38    1
32    14    15    1
33    14    39    1
34    14    40    1
35    15    16    1
36    15    41    1
37    15    42    1
38    16    17    1
39    16    18    1
40    17    43    1
41    17    44    1
42    17    45    1
43    18    46    1
44    18    47    1
45    18    48    1
46    19    20    1
47    19    49    1
48    20    21    ar
49    20    22    ar
@<TRIPOS>SUBSTRUCTURE
1   ZINC000012661824 1     RESIDUE    1   A     ZIN   1
