@<TRIPOS>MOLECULE
ZINC000004097383
101   106   1     0     0
SMALL
USER_CHARGES
@<TRIPOS>ATOM
1      C1      8.0130    4.1402   -3.5921 C.3      1 ZINC000004097383   -0.1600
2      C2      7.3461    3.2127   -2.6092 C.2      1 ZINC000004097383    0.4500
3      O3      7.9735    2.7672   -1.6777 O.2      1 ZINC000004097383   -0.4800
4      O4      6.0551    2.8816   -2.7686 O.3      1 ZINC000004097383   -0.3600
5      C5      5.5089    1.8975   -1.8513 C.3      1 ZINC000004097383    0.0800
6      H6      6.2651    1.5975   -1.1258 H        1 ZINC000004097383    0.1300
7      C7      4.2666    2.4716   -1.1254 C.3      1 ZINC000004097383    0.0200
8      H8      4.4455    2.5095   -0.0508 H        1 ZINC000004097383    0.1500
9      N9      3.9625    3.8161   -1.6332 N.4      1 ZINC000004097383   -0.2500
10     C10     2.7483    4.3219   -0.9791 C.3      1 ZINC000004097383   -0.0600
11     C11     5.0847    4.7147   -1.3371 C.3      1 ZINC000004097383   -0.0300
12     C12     4.7397    6.1346   -1.7915 C.3      1 ZINC000004097383   -0.1500
13     C13     4.4706    6.1310   -3.2990 C.3      1 ZINC000004097383   -0.1400
14     C14     3.3483    5.1349   -3.6049 C.3      1 ZINC000004097383   -0.1500
15     C15     3.7449    3.7521   -3.0833 C.3      1 ZINC000004097383   -0.0400
16     C16     3.0917    1.5045   -1.4365 C.3      1 ZINC000004097383   -0.1400
17     C17     3.8074    0.1883   -1.7587 C.3      1 ZINC000004097383   -0.0800
18     H18     4.1675   -0.2818   -0.8436 H        1 ZINC000004097383    0.1000
19     C19     3.0203   -0.8081   -2.5889 C.3      1 ZINC000004097383   -0.0700
20     H20     2.7300   -0.3513   -3.5351 H        1 ZINC000004097383    0.0900
21     C21     1.7725   -1.2635   -1.8308 C.3      1 ZINC000004097383   -0.1200
22     C22     1.0229   -2.3063   -2.6625 C.3      1 ZINC000004097383   -0.1200
23     C23     1.9325   -3.5105   -2.9134 C.3      1 ZINC000004097383   -0.0800
24     H24     2.2236   -3.9505   -1.9596 H        1 ZINC000004097383    0.0900
25     C25     1.1833   -4.5516   -3.7472 C.3      1 ZINC000004097383   -0.2600
26     C26     2.0932   -5.7564   -3.9959 C.3      1 ZINC000004097383    0.0900
27     H27     1.5593   -6.4987   -4.5892 H        1 ZINC000004097383    0.1000
28     O28     2.4812   -6.3407   -2.7245 O.3      1 ZINC000004097383   -0.3400
29     C29     1.6864   -7.3016   -2.2277 C.2      1 ZINC000004097383    0.4600
30     C30     2.0254   -7.9544   -0.9124 C.3      1 ZINC000004097383   -0.1500
31     O31     0.6993   -7.6431   -2.8349 O.2      1 ZINC000004097383   -0.5000
32     C32     3.3437   -5.3024   -4.7517 C.3      1 ZINC000004097383    0.0300
33     H33     3.9918   -6.1604   -4.9303 H        1 ZINC000004097383    0.1400
34     N34     2.9508   -4.7096   -6.0370 N.4      1 ZINC000004097383   -0.2500
35     C35     3.9124   -3.6621   -6.4058 C.3      1 ZINC000004097383   -0.0900
36     C36     2.9442   -5.7500   -7.0724 C.3      1 ZINC000004097383   -0.0100
37     C37     2.6145   -5.1230   -8.4288 C.3      1 ZINC000004097383   -0.1400
38     C38     1.2347   -4.4625   -8.3578 C.3      1 ZINC000004097383   -0.1400
39     C39     1.2309   -3.4314   -7.2255 C.3      1 ZINC000004097383   -0.1600
40     C40     1.6118   -4.1210   -5.9137 C.3      1 ZINC000004097383   -0.1200
41     C41     4.0936   -4.2617   -3.9180 C.3      1 ZINC000004097383   -0.1400
42     C42     3.1839   -3.0569   -3.6685 C.3      1 ZINC000004097383   -0.0600
43     C43     2.7787   -2.4371   -5.0074 C.3      1 ZINC000004097383   -0.2800
44     C44     3.9422   -2.0087   -2.8530 C.3      1 ZINC000004097383   -0.0700
45     H45     4.2147   -2.4413   -1.8903 H        1 ZINC000004097383    0.0800
46     C46     5.2143   -1.5964   -3.5857 C.3      1 ZINC000004097383   -0.1300
47     C47     5.9554   -0.4772   -2.8347 C.3      1 ZINC000004097383   -0.1000
48     C48     5.0028    0.6816   -2.6205 C.3      1 ZINC000004097383   -0.0700
49     C49     4.4165    1.1239   -3.9627 C.3      1 ZINC000004097383   -0.1700
50     H50     8.4514    3.5571   -4.4019 H        1 ZINC000004097383    0.1200
51     H51     7.2739    4.8299   -3.9998 H        1 ZINC000004097383    0.1000
52     H52     8.7959    4.7045   -3.0855 H        1 ZINC000004097383    0.1200
53     H53     2.8764    4.2856    0.1027 H        1 ZINC000004097383    0.1200
54     H54     2.5704    5.3515   -1.2895 H        1 ZINC000004097383    0.1300
55     H55     1.8972    3.7039   -1.2652 H        1 ZINC000004097383    0.1200
56     H56     5.2772    4.7137   -0.2642 H        1 ZINC000004097383    0.1200
57     H57     5.9741    4.3707   -1.8651 H        1 ZINC000004097383    0.1300
58     H58     3.8506    6.4796   -1.2638 H        1 ZINC000004097383    0.0900
59     H59     5.5749    6.7999   -1.5724 H        1 ZINC000004097383    0.1100
60     H60     4.1693    7.1288   -3.6179 H        1 ZINC000004097383    0.1000
61     H61     5.3753    5.8351   -3.8301 H        1 ZINC000004097383    0.0800
62     H62     2.4303    5.4592   -3.1149 H        1 ZINC000004097383    0.0900
63     H63     3.1889    5.0857   -4.6821 H        1 ZINC000004097383    0.1100
64     H64     4.6628    3.4287   -3.5742 H        1 ZINC000004097383    0.1700
65     H65     2.9481    3.0405   -3.2997 H        1 ZINC000004097383    0.1300
66     H66     2.4460    1.3894   -0.5658 H        1 ZINC000004097383    0.1100
67     H67     2.5217    1.8544   -2.2972 H        1 ZINC000004097383    0.1000
68     H68     2.0666   -1.7021   -0.8773 H        1 ZINC000004097383    0.0700
69     H69     1.1232   -0.4065   -1.6516 H        1 ZINC000004097383    0.0700
70     H70     0.1328   -2.6298   -2.1228 H        1 ZINC000004097383    0.0800
71     H71     0.7296   -1.8677   -3.6163 H        1 ZINC000004097383    0.0700
72     H72     0.2918   -4.8745   -3.2096 H        1 ZINC000004097383    0.1000
73     H73     0.8931   -4.1124   -4.7016 H        1 ZINC000004097383    0.1700
74     H74     1.5560   -7.3998   -0.0998 H        1 ZINC000004097383    0.1100
75     H75     1.6586   -8.9809   -0.9110 H        1 ZINC000004097383    0.1100
76     H76     3.1067   -7.9548   -0.7749 H        1 ZINC000004097383    0.1000
77     H77     4.7340   -4.1049   -6.9687 H        1 ZINC000004097383    0.1200
78     H78     3.4144   -2.9114   -7.0195 H        1 ZINC000004097383    0.1300
79     H79     4.3023   -3.1925   -5.5026 H        1 ZINC000004097383    0.1500
80     H80     3.9259   -6.2213   -7.1195 H        1 ZINC000004097383    0.1300
81     H81     2.1930   -6.5009   -6.8275 H        1 ZINC000004097383    0.1300
82     H82     3.3653   -4.3721   -8.6748 H        1 ZINC000004097383    0.0900
83     H83     2.6083   -5.8974   -9.1958 H        1 ZINC000004097383    0.1100
84     H84     1.0193   -3.9657   -9.3038 H        1 ZINC000004097383    0.1000
85     H85     0.4770   -5.2213   -8.1624 H        1 ZINC000004097383    0.0800
86     H86     1.9529   -2.6454   -7.4465 H        1 ZINC000004097383    0.0900
87     H87     0.2356   -2.9966   -7.1325 H        1 ZINC000004097383    0.1100
88     H88     0.8890   -4.9066   -5.6935 H        1 ZINC000004097383    0.1400
89     H89     1.6098   -3.3898   -5.1054 H        1 ZINC000004097383    0.2300
90     H90     4.3851   -4.7018   -2.9644 H        1 ZINC000004097383    0.1200
91     H91     4.9846   -3.9387   -4.4563 H        1 ZINC000004097383    0.1000
92     H92     2.6562   -3.2252   -5.7504 H        1 ZINC000004097383    0.1200
93     H93     1.8377   -1.8999   -4.8891 H        1 ZINC000004097383    0.0900
94     H94     3.5535   -1.7447   -5.3365 H        1 ZINC000004097383    0.0900
95     H95     5.8710   -2.4617   -3.6748 H        1 ZINC000004097383    0.0800
96     H96     4.9529   -1.2440   -4.5835 H        1 ZINC000004097383    0.0700
97     H97     6.2621   -0.8312   -1.8504 H        1 ZINC000004097383    0.0700
98     H98     6.8291   -0.1631   -3.4056 H        1 ZINC000004097383    0.0800
99     H99     4.2615    0.2510   -4.5968 H        1 ZINC000004097383    0.0800
100    H100    3.4632    1.6253   -3.7952 H        1 ZINC000004097383    0.0600
101    H101    5.1071    1.8106   -4.4522 H        1 ZINC000004097383    0.0700
@<TRIPOS>BOND
1     1     2     1
2     1     50    1
3     1     51    1
4     1     52    1
5     2     3     2
6     2     4     1
7     4     5     1
8     5     6     1
9     5     48    1
10    5     7     1
11    7     8     1
12    7     9     1
13    7     16    1
14    9     15    1
15    9     10    1
16    9     11    1
17    10    53    1
18    10    54    1
19    10    55    1
20    11    12    1
21    11    56    1
22    11    57    1
23    12    13    1
24    12    58    1
25    12    59    1
26    13    14    1
27    13    60    1
28    13    61    1
29    14    15    1
30    14    62    1
31    14    63    1
32    15    64    1
33    15    65    1
34    16    17    1
35    16    66    1
36    16    67    1
37    17    18    1
38    17    48    1
39    17    19    1
40    19    20    1
41    19    44    1
42    19    21    1
43    21    22    1
44    21    68    1
45    21    69    1
46    22    23    1
47    22    70    1
48    22    71    1
49    23    24    1
50    23    42    1
51    23    25    1
52    25    26    1
53    25    72    1
54    25    73    1
55    26    27    1
56    26    28    1
57    26    32    1
58    28    29    1
59    29    30    1
60    29    31    2
61    30    74    1
62    30    75    1
63    30    76    1
64    32    33    1
65    32    34    1
66    32    41    1
67    34    40    1
68    34    35    1
69    34    36    1
70    35    77    1
71    35    78    1
72    35    79    1
73    36    37    1
74    36    80    1
75    36    81    1
76    37    38    1
77    37    82    1
78    37    83    1
79    38    39    1
80    38    84    1
81    38    85    1
82    39    40    1
83    39    86    1
84    39    87    1
85    40    88    1
86    40    89    1
87    41    42    1
88    41    90    1
89    41    91    1
90    42    43    1
91    42    44    1
92    43    92    1
93    43    93    1
94    43    94    1
95    44    45    1
96    44    46    1
97    46    47    1
98    46    95    1
99    46    96    1
100   47    48    1
101   47    97    1
102   47    98    1
103   48    49    1
104   49    99    1
105   49    100   1
106   49    101   1
@<TRIPOS>SUBSTRUCTURE
1   ZINC000004097383 1     RESIDUE    1   A     ZIN   1
