@<TRIPOS>MOLECULE
ZINC000001530283
21   20    0    0    0
SMALL
NO_CHARGES


@<TRIPOS>ATOM
1 N1            -0.0162     1.3436     0.0094 N.am
2 C2             0.0021    -0.0041     0.0020 C.2
3 O3             1.0631    -0.5976    -0.0113 O.2
4 N4            -1.1558    -0.6938     0.0094 N.am
5 C5            -1.1360    -2.1586     0.0013 C.3
6 H6            -0.2837    -2.5136     0.5807 H
7 C7            -2.4304    -2.6896     0.6205 C.3
8 C8            -2.4892    -2.2937     2.0972 C.3
9 C9            -3.7642    -2.8168     2.7071 C.2
10 O10           -4.5527    -3.4477     2.0239 O.co2
11 O11           -4.0072    -2.6090     3.8836 O.co2
12 C12           -1.0188    -2.6516    -1.4179 C.2
13 O13           -0.9576    -1.8533    -2.3375 O.co2
14 O14           -0.9853    -3.8487    -1.6466 O.co2
15 H15            0.8172     1.8399     0.0041 H
16 H16           -0.8627     1.8171     0.0160 H
17 H17           -2.0023    -0.2203     0.0200 H
18 H18           -3.2856    -2.2637     0.0958 H
19 H19           -2.4555    -3.7759     0.5343 H
20 H20           -1.6341    -2.7197     2.6219 H
21 H21           -2.4642    -1.2074     2.1834 H
@<TRIPOS>BOND
1    1    2 am
2    1   15 1
3    1   16 1
4    2    3 2
5    2    4 am
6    4    5 1
7    4   17 1
8    5    6 1
9    5    7 1
10    5   12 1
11    7    8 1
12    7   18 1
13    7   19 1
14    8    9 1
15    8   20 1
16    8   21 1
17    9   10 ar
18    9   11 ar
19   12   13 ar
20   12   14 ar


