@<TRIPOS>MOLECULE
ZINC000030691736
56    58    1     0     0
SMALL
USER_CHARGES
@<TRIPOS>ATOM
1      C1     -2.9474   -1.3560   -4.2175 C.3      1 ZINC000030691736   -0.1500
2      C2     -2.1910   -2.1629   -3.1603 C.3      1 ZINC000030691736    0.0500
3      O3     -0.7887   -1.9200   -3.2888 O.3      1 ZINC000030691736   -0.3000
4      C4      0.0321   -2.5657   -2.4177 C.ar     1 ZINC000030691736    0.1100
5      C5     -0.5001   -3.4184   -1.4646 C.ar     1 ZINC000030691736   -0.1500
6      C6      0.3360   -4.0746   -0.5800 C.ar     1 ZINC000030691736   -0.0900
7      C7     -0.2447   -5.0019    0.4563 C.3      1 ZINC000030691736    0.2100
8      H8     -0.3009   -4.4861    1.4148 H        1 ZINC000030691736    0.1400
9      C9     -1.6483   -5.4327    0.0259 C.3      1 ZINC000030691736   -0.6500
10     S10    -2.4048   -6.4285    1.3399 S.o2     1 ZINC000030691736    2.4100
11     C11    -4.0264   -6.8197    0.6272 C.3      1 ZINC000030691736   -0.6500
12     O12    -1.6668   -7.6352    1.4754 O.2      1 ZINC000030691736   -0.9300
13     O13    -2.5986   -5.6021    2.4796 O.2      1 ZINC000030691736   -0.9200
14     N14     0.6102   -6.1844    0.5875 N.am     1 ZINC000030691736   -0.5800
15     C15     0.9627   -6.9859   -0.4339 C.2      1 ZINC000030691736    0.5800
16     O16     0.6279   -6.8468   -1.5932 O.2      1 ZINC000030691736   -0.4500
17     C17     1.8263   -8.0638    0.0920 C.ar     1 ZINC000030691736   -0.1200
18     C18     2.4707   -9.1495   -0.4749 C.ar     1 ZINC000030691736   -0.0600
19     C19     3.2284   -9.9980    0.3212 C.ar     1 ZINC000030691736   -0.0700
20     C20     3.3459   -9.7702    1.6757 C.ar     1 ZINC000030691736   -0.1000
21     C21     2.7034   -8.6811    2.2666 C.ar     1 ZINC000030691736    0.2300
22     N22     2.8240   -8.4539    3.6342 N.am     1 ZINC000030691736   -0.6700
23     C23     3.9782   -8.7448    4.2664 C.2      1 ZINC000030691736    0.5200
24     C24     4.1433   -8.4084    5.7261 C.3      1 ZINC000030691736   -0.1700
25     O25     4.8839   -9.2773    3.6607 O.2      1 ZINC000030691736   -0.5200
26     C26     1.9415   -7.8229    1.4776 C.ar     1 ZINC000030691736   -0.1800
27     C27     1.1508   -6.6082    1.7440 C.2      1 ZINC000030691736    0.5900
28     O28     1.0079   -6.0795    2.8286 O.2      1 ZINC000030691736   -0.4600
29     C29     1.7031   -3.8822   -0.6443 C.ar     1 ZINC000030691736   -0.1000
30     C30     2.2409   -3.0319   -1.5931 C.ar     1 ZINC000030691736   -0.1700
31     C31     1.4094   -2.3756   -2.4857 C.ar     1 ZINC000030691736    0.1100
32     O32     1.9366   -1.5391   -3.4194 O.3      1 ZINC000030691736   -0.3000
33     C33     3.3571   -1.3836   -3.4229 C.3      1 ZINC000030691736    0.0200
34     H34    -2.7481   -0.2938   -4.0752 H        1 ZINC000030691736    0.0700
35     H35    -2.6159   -1.6579   -5.2110 H        1 ZINC000030691736    0.0700
36     H36    -4.0171   -1.5413   -4.1194 H        1 ZINC000030691736    0.0800
37     H37    -2.5225   -1.8609   -2.1668 H        1 ZINC000030691736    0.0600
38     H38    -2.3903   -3.2250   -3.3026 H        1 ZINC000030691736    0.0600
39     H39    -1.5680   -3.5705   -1.4122 H        1 ZINC000030691736    0.1400
40     H40    -2.2593   -4.5489   -0.1577 H        1 ZINC000030691736    0.1600
41     H41    -1.5828   -6.0250   -0.8868 H        1 ZINC000030691736    0.1500
42     H42    -3.8909   -7.3712   -0.3031 H        1 ZINC000030691736    0.1300
43     H43    -4.5953   -7.4278    1.3306 H        1 ZINC000030691736    0.1300
44     H44    -4.5675   -5.8951    0.4260 H        1 ZINC000030691736    0.1300
45     H45     2.3841   -9.3367   -1.5350 H        1 ZINC000030691736    0.1500
46     H46     3.7299  -10.8443   -0.1246 H        1 ZINC000030691736    0.1500
47     H47     3.9382  -10.4385    2.2831 H        1 ZINC000030691736    0.1600
48     H48     2.0774   -8.0862    4.1325 H        1 ZINC000030691736    0.4200
49     H49     3.3851   -8.9326    6.3078 H        1 ZINC000030691736    0.1000
50     H50     5.1343   -8.7159    6.0600 H        1 ZINC000030691736    0.1000
51     H51     4.0300   -7.3334    5.8663 H        1 ZINC000030691736    0.1000
52     H52     2.3529   -4.3967    0.0481 H        1 ZINC000030691736    0.1200
53     H53     3.3095   -2.8828   -1.6408 H        1 ZINC000030691736    0.1400
54     H54     3.6449   -0.6916   -4.2143 H        1 ZINC000030691736    0.1000
55     H55     3.6819   -0.9896   -2.4599 H        1 ZINC000030691736    0.0600
56     H56     3.8280   -2.3511   -3.5971 H        1 ZINC000030691736    0.0600
@<TRIPOS>BOND
1     1     2     1
2     1     34    1
3     1     35    1
4     1     36    1
5     2     3     1
6     2     37    1
7     2     38    1
8     3     4     1
9     4     31    ar
10    4     5     ar
11    5     6     ar
12    5     39    1
13    6     7     1
14    6     29    ar
15    7     8     1
16    7     9     1
17    7     14    1
18    9     10    1
19    9     40    1
20    9     41    1
21    10    11    1
22    10    12    2
23    10    13    2
24    11    42    1
25    11    43    1
26    11    44    1
27    14    27    am
28    14    15    am
29    15    16    2
30    15    17    1
31    17    26    ar
32    17    18    ar
33    18    19    ar
34    18    45    1
35    19    20    ar
36    19    46    1
37    20    21    ar
38    20    47    1
39    21    22    1
40    21    26    ar
41    22    23    am
42    22    48    1
43    23    24    1
44    23    25    2
45    24    49    1
46    24    50    1
47    24    51    1
48    26    27    1
49    27    28    2
50    29    30    ar
51    29    52    1
52    30    31    ar
53    30    53    1
54    31    32    1
55    32    33    1
56    33    54    1
57    33    55    1
58    33    56    1
@<TRIPOS>SUBSTRUCTURE
1   ZINC000030691736 1     RESIDUE    1   A     ZIN   1
