@<TRIPOS>MOLECULE
ZINC000001280665
43    47    1     0     0
SMALL
USER_CHARGES
@<TRIPOS>ATOM
1      C1     -0.0173    1.4248    0.0099 C.3      1 ZINC000001280665    0.0300
2      O2      0.0021   -0.0041    0.0020 O.3      1 ZINC000001280665   -0.3100
3      C3      0.6062   -0.6075   -1.0564 C.ar     1 ZINC000001280665    0.1100
4      C4      1.1853    0.1340   -2.0837 C.ar     1 ZINC000001280665   -0.1700
5      C5      1.7961   -0.4413   -3.1864 C.ar     1 ZINC000001280665   -0.1100
6      C6      1.8685   -1.8179   -3.3029 C.ar     1 ZINC000001280665   -0.0600
7      C7      2.4002   -2.5491   -4.4925 C.3      1 ZINC000001280665   -0.1100
8      C8      2.3645   -4.0609   -4.3426 C.3      1 ZINC000001280665    0.0900
9      H9      2.2809   -4.4952   -5.3389 H        1 ZINC000001280665    0.0900
10     C10     1.1981   -4.5858   -3.5002 C.3      1 ZINC000001280665   -0.0600
11     H11     1.2274   -5.6750   -3.4738 H        1 ZINC000001280665    0.1000
12     C12    -0.1285   -4.1236   -4.1012 C.3      1 ZINC000001280665   -0.1100
13     C13    -1.2733   -4.6896   -3.2588 C.3      1 ZINC000001280665   -0.1600
14     C14    -1.1226   -4.2587   -1.8309 C.2      1 ZINC000001280665    0.3400
15     O15    -2.1117   -3.9303   -1.2210 O.2      1 ZINC000001280665   -0.4300
16     C16     0.2005   -4.2172   -1.1244 C.3      1 ZINC000001280665    0.0500
17     H17     0.3365   -5.0895   -0.4851 H        1 ZINC000001280665    0.1500
18     O18     0.2442   -2.9766   -0.3556 O.3      1 ZINC000001280665   -0.2600
19     C19     0.6791   -2.0016   -1.1596 C.ar     1 ZINC000001280665    0.0800
20     C20     1.3417   -2.5360   -2.2544 C.ar     1 ZINC000001280665   -0.1500
21     C21     1.3652   -4.0373   -2.0927 C.3      1 ZINC000001280665   -0.0400
22     C22     2.6984   -4.4740   -1.4910 C.3      1 ZINC000001280665   -0.1000
23     C23     3.8312   -3.9860   -2.4013 C.3      1 ZINC000001280665    0.0500
24     N24     3.6194   -4.5397   -3.7470 N.3      1 ZINC000001280665   -0.5300
25     C25     4.7368   -4.1997   -4.6380 C.3      1 ZINC000001280665    0.0100
26     H26     1.0053    1.8021    0.0021 H        1 ZINC000001280665    0.0600
27     H27    -0.5445    1.7859   -0.8732 H        1 ZINC000001280665    0.0600
28     H28    -0.5275    1.7763    0.9067 H        1 ZINC000001280665    0.1000
29     H29     1.1565    1.2116   -2.0174 H        1 ZINC000001280665    0.1300
30     H30     2.2167    0.1870   -3.9576 H        1 ZINC000001280665    0.1300
31     H31     1.8096   -2.2711   -5.3655 H        1 ZINC000001280665    0.0800
32     H32     3.4318   -2.2395   -4.6599 H        1 ZINC000001280665    0.0800
33     H33    -0.1733   -3.0346   -4.0942 H        1 ZINC000001280665    0.0700
34     H34    -0.2129   -4.4885   -5.1249 H        1 ZINC000001280665    0.0900
35     H35    -2.2236   -4.3245   -3.6483 H        1 ZINC000001280665    0.1000
36     H36    -1.2572   -5.7782   -3.3116 H        1 ZINC000001280665    0.1100
37     H37     2.8125   -4.0371   -0.4989 H        1 ZINC000001280665    0.0800
38     H38     2.7289   -5.5613   -1.4200 H        1 ZINC000001280665    0.0900
39     H39     3.8294   -2.8963   -2.4296 H        1 ZINC000001280665    0.0500
40     H40     4.7866   -4.3357   -2.0102 H        1 ZINC000001280665    0.0800
41     H41     5.6499   -4.6683   -4.2708 H        1 ZINC000001280665    0.0700
42     H42     4.5223   -4.5608   -5.6439 H        1 ZINC000001280665    0.0700
43     H43     4.8673   -3.1178   -4.6605 H        1 ZINC000001280665    0.0300
@<TRIPOS>BOND
1     1     2     1
2     1     26    1
3     1     27    1
4     1     28    1
5     2     3     1
6     3     19    ar
7     3     4     ar
8     4     5     ar
9     4     29    1
10    5     6     ar
11    5     30    1
12    6     20    ar
13    6     7     1
14    7     8     1
15    7     31    1
16    7     32    1
17    8     9     1
18    8     24    1
19    8     10    1
20    10    11    1
21    10    21    1
22    10    12    1
23    12    13    1
24    12    33    1
25    12    34    1
26    13    14    1
27    13    35    1
28    13    36    1
29    14    15    2
30    14    16    1
31    16    17    1
32    16    21    1
33    16    18    1
34    18    19    1
35    19    20    ar
36    20    21    1
37    21    22    1
38    22    23    1
39    22    37    1
40    22    38    1
41    23    24    1
42    23    39    1
43    23    40    1
44    24    25    1
45    25    41    1
46    25    42    1
47    25    43    1
@<TRIPOS>SUBSTRUCTURE
1   ZINC000001280665 1     RESIDUE    1   A     ZIN   1




