@<TRIPOS>MOLECULE
ZINC000094566093
59    63    1     0     0
SMALL
USER_CHARGES
@<TRIPOS>ATOM
1      C1     -0.4462    1.7202    0.3762 C.3      1 ZINC000094566093    0.0100
2      O2     -0.5481    0.2956    0.4237 O.3      1 ZINC000094566093   -0.2800
3      C3      0.0761   -0.3334    1.4534 C.ar     1 ZINC000094566093    0.2200
4      C4      0.0169   -1.7300    1.5508 C.ar     1 ZINC000094566093    0.1200
5      O5     -0.6654   -2.4413    0.6134 O.3      1 ZINC000094566093   -0.2900
6      C6     -0.6894   -3.8618    0.7673 C.3      1 ZINC000094566093    0.0100
7      C7      0.6373   -2.3852    2.5764 C.ar     1 ZINC000094566093   -0.1200
8      C8      1.3401   -1.6545    3.5420 C.ar     1 ZINC000094566093   -0.1800
9      C9      2.0001   -2.2871    4.6236 C.ar     1 ZINC000094566093    0.5500
10     N10     1.9724   -3.6591    4.7634 N.pl3    1 ZINC000094566093   -0.7700
11     N11     2.6454   -1.5286    5.4979 N.ar     1 ZINC000094566093   -0.5800
12     C12     2.6806   -0.2045    5.3750 C.ar     1 ZINC000094566093    0.6300
13     N13     3.3720    0.5312    6.3214 N.3      1 ZINC000094566093   -0.4700
14     C14     4.3896    1.3803    5.6876 C.3      1 ZINC000094566093    0.0300
15     C15     5.0053    2.3070    6.7414 C.3      1 ZINC000094566093    0.1200
16     N16     5.4903    1.4849    7.8604 N.am     1 ZINC000094566093   -0.6200
17     C17     6.7484    1.6211    8.3243 C.2      1 ZINC000094566093    0.5300
18     O18     7.5228    2.3693    7.7664 O.2      1 ZINC000094566093   -0.4900
19     C19     7.1928    0.8437    9.5364 C.3      1 ZINC000094566093    0.0300
20     H20     6.4145    0.8753   10.2989 H        1 ZINC000094566093    0.1100
21     C21     7.4727   -0.6130    9.1429 C.3      1 ZINC000094566093    0.0300
22     O22     7.9048   -1.3181   10.3117 O.3      1 ZINC000094566093   -0.3000
23     C23     8.8452   -0.7061   11.0822 C.ar     1 ZINC000094566093    0.0400
24     C24     9.5648   -1.4549   12.0009 C.ar     1 ZINC000094566093   -0.1100
25     C25    10.5209   -0.8468   12.7928 C.ar     1 ZINC000094566093   -0.1100
26     C26    10.7617    0.5087   12.6716 C.ar     1 ZINC000094566093   -0.1100
27     C27    10.0488    1.2608   11.7566 C.ar     1 ZINC000094566093   -0.1100
28     C28     9.0898    0.6567   10.9578 C.ar     1 ZINC000094566093    0.0500
29     O29     8.4011    1.4089   10.0562 O.3      1 ZINC000094566093   -0.2800
30     C30     4.5663    0.5098    8.4592 C.3      1 ZINC000094566093    0.1000
31     C31     3.9679   -0.3461    7.3378 C.3      1 ZINC000094566093    0.0500
32     N32     2.0842    0.4362    4.3884 N.ar     1 ZINC000094566093   -0.5500
33     H33     2.1376    1.4035    4.3399 H        1 ZINC000094566093    0.4400
34     C34     1.4039   -0.2424    3.4505 C.ar     1 ZINC000094566093    0.2100
35     C35     0.7656    0.4082    2.3878 C.ar     1 ZINC000094566093   -0.2300
36     H36     0.6028    2.0071    0.3020 H        1 ZINC000094566093    0.0700
37     H37    -0.9876    2.0944   -0.4926 H        1 ZINC000094566093    0.1200
38     H38    -0.8759    2.1456    1.2831 H        1 ZINC000094566093    0.0700
39     H39    -1.2653   -4.3055   -0.0448 H        1 ZINC000094566093    0.1200
40     H40     0.3299   -4.2471    0.7427 H        1 ZINC000094566093    0.0600
41     H41    -1.1511   -4.1161    1.7214 H        1 ZINC000094566093    0.0600
42     H42     0.5856   -3.4619    2.6423 H        1 ZINC000094566093    0.1600
43     H43     1.4967   -4.2030    4.1163 H        1 ZINC000094566093    0.4300
44     H44     2.4286   -4.0800    5.5088 H        1 ZINC000094566093    0.4300
45     H45     5.1689    0.7528    5.2552 H        1 ZINC000094566093    0.0800
46     H46     3.9266    1.9787    4.9030 H        1 ZINC000094566093    0.1000
47     H47     5.8380    2.8572    6.3034 H        1 ZINC000094566093    0.1200
48     H48     4.2498    3.0056    7.1009 H        1 ZINC000094566093    0.0900
49     H49     6.5629   -1.0699    8.7533 H        1 ZINC000094566093    0.1200
50     H50     8.2547   -0.6450    8.3842 H        1 ZINC000094566093    0.0900
51     H51     9.3780   -2.5142   12.0981 H        1 ZINC000094566093    0.1400
52     H52    11.0805   -1.4320   13.5076 H        1 ZINC000094566093    0.1400
53     H53    11.5078    0.9813   13.2932 H        1 ZINC000094566093    0.1400
54     H54    10.2388    2.3199   11.6640 H        1 ZINC000094566093    0.1400
55     H55     5.1088   -0.1281    9.1570 H        1 ZINC000094566093    0.1100
56     H56     3.7686    1.0357    8.9839 H        1 ZINC000094566093    0.1000
57     H57     3.1992   -0.9998    7.7500 H        1 ZINC000094566093    0.1200
58     H58     4.7531   -0.9495    6.8824 H        1 ZINC000094566093    0.0800
59     H59     0.8100    1.4839    2.3032 H        1 ZINC000094566093    0.1700
@<TRIPOS>BOND
1     1     2     1
2     1     36    1
3     1     37    1
4     1     38    1
5     2     3     1
6     3     35    ar
7     3     4     ar
8     4     5     1
9     4     7     ar
10    5     6     1
11    6     39    1
12    6     40    1
13    6     41    1
14    7     8     ar
15    7     42    1
16    8     34    ar
17    8     9     ar
18    9     10    1
19    9     11    ar
20    10    43    1
21    10    44    1
22    11    12    ar
23    12    13    1
24    12    32    ar
25    13    31    1
26    13    14    1
27    14    15    1
28    14    45    1
29    14    46    1
30    15    16    1
31    15    47    1
32    15    48    1
33    16    17    am
34    16    30    1
35    17    18    2
36    17    19    1
37    19    20    1
38    19    29    1
39    19    21    1
40    21    22    1
41    21    49    1
42    21    50    1
43    22    23    1
44    23    28    ar
45    23    24    ar
46    24    25    ar
47    24    51    1
48    25    26    ar
49    25    52    1
50    26    27    ar
51    26    53    1
52    27    28    ar
53    27    54    1
54    28    29    1
55    30    31    1
56    30    55    1
57    30    56    1
58    31    57    1
59    31    58    1
60    32    33    1
61    32    34    ar
62    34    35    ar
63    35    59    1
@<TRIPOS>SUBSTRUCTURE
1   ZINC000094566093 1     RESIDUE    1   A     ZIN   1
