@<TRIPOS>MOLECULE
ZINC000001530639
55    57    1     0     0
SMALL
USER_CHARGES
@<TRIPOS>ATOM
1      C1      0.5038    1.1341   -0.2542 C.3      1 ZINC000001530639   -0.1700
2      C2      0.4511   -0.3640    0.0520 C.3      1 ZINC000001530639    0.1300
3      C3      1.3734   -1.1142   -0.9110 C.3      1 ZINC000001530639   -0.1700
4      N4      0.8906   -0.5965    1.4300 N.pl3    1 ZINC000001530639   -0.4700
5      C5      2.1292   -0.2572    1.9314 C.ar     1 ZINC000001530639    0.1100
6      C6      3.2466    0.3485    1.3647 C.ar     1 ZINC000001530639   -0.1300
7      C7      4.3716    0.5653    2.1307 C.ar     1 ZINC000001530639   -0.1000
8      C8      4.4033    0.1854    3.4649 C.ar     1 ZINC000001530639   -0.1500
9      C9      3.3173   -0.4115    4.0417 C.ar     1 ZINC000001530639   -0.0700
10     C10     2.1676   -0.6400    3.2842 C.ar     1 ZINC000001530639   -0.0900
11     C11     0.8604   -1.2420    3.5816 C.2      1 ZINC000001530639   -0.1400
12     C12     0.4165   -1.7990    4.8784 C.ar     1 ZINC000001530639   -0.0100
13     C13     1.0299   -2.9402    5.3972 C.ar     1 ZINC000001530639   -0.0800
14     C14     0.6121   -3.4554    6.6066 C.ar     1 ZINC000001530639   -0.1500
15     C15    -0.4149   -2.8421    7.3061 C.ar     1 ZINC000001530639    0.0900
16     F16    -0.8202   -3.3507    8.4902 F        1 ZINC000001530639   -0.1400
17     C17    -1.0273   -1.7087    6.7956 C.ar     1 ZINC000001530639   -0.1500
18     C18    -0.6132   -1.1816    5.5901 C.ar     1 ZINC000001530639   -0.0700
19     C19     0.1253   -1.1798    2.4133 C.2      1 ZINC000001530639    0.1400
20     C20    -1.2497   -1.6682    2.2451 C.2      1 ZINC000001530639   -0.1200
21     C21    -1.5464   -2.9337    2.5328 C.2      1 ZINC000001530639   -0.1300
22     C22    -2.9768   -3.4044    2.4732 C.3      1 ZINC000001530639    0.1400
23     H23    -3.6202   -2.5753    2.1791 H        1 ZINC000001530639    0.1000
24     O24    -3.3746   -3.8830    3.7596 O.3      1 ZINC000001530639   -0.5300
25     C25    -3.0997   -4.5339    1.4485 C.3      1 ZINC000001530639   -0.1800
26     C26    -4.5705   -4.9271    1.2969 C.3      1 ZINC000001530639    0.1400
27     H27    -5.1583   -4.0448    1.0438 H        1 ZINC000001530639    0.0900
28     O28    -5.0452   -5.4791    2.5265 O.3      1 ZINC000001530639   -0.5300
29     C29    -4.7080   -5.9680    0.1839 C.3      1 ZINC000001530639   -0.2200
30     C30    -6.1671   -6.2644   -0.0491 C.2      1 ZINC000001530639    0.4900
31     O31    -7.0181   -5.6960    0.6136 O.co2    1 ZINC000001530639   -0.6800
32     O32    -6.4966   -7.0728   -0.9002 O.co2    1 ZINC000001530639   -0.7100
33     H33     1.5255    1.4940   -0.1332 H        1 ZINC000001530639    0.0700
34     H34     0.1767    1.3071   -1.2795 H        1 ZINC000001530639    0.0800
35     H35    -0.1534    1.6685    0.4318 H        1 ZINC000001530639    0.0600
36     H36    -0.5707   -0.7239   -0.0691 H        1 ZINC000001530639    0.1000
37     H37     2.3952   -0.7543   -0.7899 H        1 ZINC000001530639    0.0700
38     H38     1.3359   -2.1814   -0.6928 H        1 ZINC000001530639    0.0600
39     H39     1.0464   -0.9412   -1.9363 H        1 ZINC000001530639    0.0800
40     H40     3.2323    0.6477    0.3271 H        1 ZINC000001530639    0.1200
41     H41     5.2373    1.0353    1.6880 H        1 ZINC000001530639    0.1200
42     H42     5.2926    0.3622    4.0517 H        1 ZINC000001530639    0.1200
43     H43     3.3486   -0.7051    5.0805 H        1 ZINC000001530639    0.1200
44     H44     1.8299   -3.4194    4.8524 H        1 ZINC000001530639    0.1300
45     H45     1.0861   -4.3385    7.0089 H        1 ZINC000001530639    0.1300
46     H46    -1.8276   -1.2347    7.3446 H        1 ZINC000001530639    0.1300
47     H47    -1.0912   -0.2983    5.1931 H        1 ZINC000001530639    0.1300
48     H48    -2.0200   -1.0006    1.8881 H        1 ZINC000001530639    0.1300
49     H49    -0.7621   -3.6229    2.8088 H        1 ZINC000001530639    0.1200
50     H50    -2.8441   -4.6229    4.0854 H        1 ZINC000001530639    0.3700
51     H51    -2.7130   -4.1958    0.4871 H        1 ZINC000001530639    0.0700
52     H52    -2.5261   -5.3964    1.7878 H        1 ZINC000001530639    0.0600
53     H53    -4.5668   -6.2688    2.8138 H        1 ZINC000001530639    0.3500
54     H54    -4.2652   -5.5798   -0.7333 H        1 ZINC000001530639    0.0600
55     H55    -4.1936   -6.8832    0.4768 H        1 ZINC000001530639    0.0600
@<TRIPOS>BOND
1     1     2     1
2     1     33    1
3     1     34    1
4     1     35    1
5     2     3     1
6     2     4     1
7     2     36    1
8     3     37    1
9     3     38    1
10    3     39    1
11    4     19    1
12    4     5     1
13    5     10    ar
14    5     6     ar
15    6     7     ar
16    6     40    1
17    7     8     ar
18    7     41    1
19    8     9     ar
20    8     42    1
21    9     10    ar
22    9     43    1
23    10    11    1
24    11    12    1
25    11    19    2
26    12    18    ar
27    12    13    ar
28    13    14    ar
29    13    44    1
30    14    15    ar
31    14    45    1
32    15    16    1
33    15    17    ar
34    17    18    ar
35    17    46    1
36    18    47    1
37    19    20    1
38    20    21    2
39    20    48    1
40    21    22    1
41    21    49    1
42    22    23    1
43    22    24    1
44    22    25    1
45    24    50    1
46    25    26    1
47    25    51    1
48    25    52    1
49    26    27    1
50    26    28    1
51    26    29    1
52    28    53    1
53    29    30    1
54    29    54    1
55    29    55    1
56    30    31    ar
57    30    32    ar
@<TRIPOS>SUBSTRUCTURE
1   ZINC000001530639 1     RESIDUE    1   A     ZIN   1
