@<TRIPOS>MOLECULE
ZINC000001542392
56   58    0    0    0
SMALL
USER_CHARGES
NO_NAME
@<TRIPOS>ATOM
1 C1       -0.0173     1.4248     0.0099 C.3    1 <0>       0.0100
2 O2        0.0021    -0.0041     0.0020 O.3    1 <0>      -0.2800
3 C3        0.6056    -0.6069    -1.0553 C.ar   1 <0>       0.2200
4 C4        0.6514    -2.0058    -1.1224 C.ar   1 <0>       0.1200
5 O5        0.0914    -2.7455    -0.1277 O.3    1 <0>      -0.2900
6 C6        0.1703    -4.1668    -0.2530 C.3    1 <0>       0.0200
7 C7        1.2517    -2.6349    -2.1758 C.ar   1 <0>      -0.1400
8 C8        1.8286    -1.8749    -3.2005 C.ar   1 <0>      -0.2100
9 C9        1.7866    -0.4603    -3.1393 C.ar   1 <0>       0.2700
10 C10       1.1612     0.1636    -2.0533 C.ar   1 <0>      -0.2100
11 N11       2.3459     0.2466    -4.1345 N.ar   1 <0>      -0.5300
12 C12       2.9227    -0.3690    -5.1483 C.ar   1 <0>       0.6200
13 N13       3.4880     0.3957    -6.1537 N.pl3  1 <0>      -0.5800
14 C14       4.1364    -0.2571    -7.2938 C.3    1 <0>       0.0600
15 C15       3.4381     1.8579    -6.0781 C.3    1 <0>       0.1300
16 C16       4.6760     2.3730    -5.3412 C.3    1 <0>      -0.1500
17 C17       4.6239     3.9000    -5.2622 C.3    1 <0>       0.1200
18 N18       5.8093     4.3933    -4.5566 N.am   1 <0>      -0.7300
19 C19       5.9784     5.7169    -4.3669 C.2    1 <0>       0.5000
20 O20       5.1493     6.4996    -4.7802 O.2    1 <0>      -0.5100
21 C21       7.1978     6.2242    -3.6411 C.3    1 <0>       0.0600
22 H22       8.0994     5.8581    -4.1323 H      1 <0>       0.1100
23 C23       7.1702     5.7465    -2.1733 C.3    1 <0>      -0.1500
24 C24       7.7069     6.9892    -1.4121 C.3    1 <0>      -0.1600
25 C25       7.1290     8.1368    -2.2780 C.3    1 <0>       0.0500
26 O26       7.1970     7.6566    -3.6321 O.3    1 <0>      -0.3500
27 N27       2.9839    -1.6942    -5.2443 N.ar   1 <0>      -0.5900
28 H28       3.4206    -2.0945    -6.0124 H      1 <0>       0.4300
29 C29       2.4616    -2.4797    -4.3137 C.ar   1 <0>       0.5500
30 N30       2.5322    -3.8526    -4.4266 N.pl3  1 <0>      -0.7900
31 H31       1.0053     1.8021     0.0021 H      1 <0>       0.0700
32 H32      -0.5445     1.7859    -0.8732 H      1 <0>       0.0700
33 H33      -0.5275     1.7763     0.9067 H      1 <0>       0.1200
34 H34      -0.3318    -4.4793    -1.1686 H      1 <0>       0.0600
35 H35       1.2165    -4.4707    -0.2905 H      1 <0>       0.0600
36 H36      -0.3133    -4.6346     0.6045 H      1 <0>       0.1200
37 H37       1.2816    -3.7136    -2.2179 H      1 <0>       0.1500
38 H38       1.1219     1.2413    -1.9940 H      1 <0>       0.1700
39 H39       3.4029    -0.4233    -8.0827 H      1 <0>       0.0800
40 H40       4.9368     0.3800    -7.6702 H      1 <0>       0.1100
41 H41       4.5520    -1.2135    -6.9767 H      1 <0>       0.0700
42 H42       3.4158     2.2733    -7.0855 H      1 <0>       0.1000
43 H43       2.5412     2.1634    -5.5392 H      1 <0>       0.1100
44 H44       4.6983     1.9576    -4.3337 H      1 <0>       0.0800
45 H45       5.5729     2.0675    -5.8801 H      1 <0>       0.0800
46 H46       4.6016     4.3155    -6.2697 H      1 <0>       0.0700
47 H47       3.7270     4.2056    -4.7233 H      1 <0>       0.0700
48 H48       6.4724     3.7673    -4.2260 H      1 <0>       0.4000
49 H49       6.1530     5.5100    -1.8614 H      1 <0>       0.0800
50 H50       7.8296     4.8902    -2.0316 H      1 <0>       0.0900
51 H51       7.3139     7.0276    -0.3961 H      1 <0>       0.0900
52 H52       8.7968     7.0087    -1.4107 H      1 <0>       0.0900
53 H53       6.0948     8.3377    -1.9986 H      1 <0>       0.0700
54 H54       7.7337     9.0368    -2.1659 H      1 <0>       0.1000
55 H55       2.9682    -4.2543    -5.1943 H      1 <0>       0.4300
56 H56       2.1457    -4.4164    -3.7383 H      1 <0>       0.4400
@<TRIPOS>BOND
1    1    2 1
2    1   31 1
3    1   32 1
4    1   33 1
5    2    3 1
6    3   10 ar
7    3    4 ar
8    4    5 1
9    4    7 ar
10    5    6 1
11    6   34 1
12    6   35 1
13    6   36 1
14    7    8 ar
15    7   37 1
16    8   29 ar
17    8    9 ar
18    9   10 ar
19    9   11 ar
20   10   38 1
21   11   12 ar
22   12   13 1
23   12   27 ar
24   13   14 1
25   13   15 1
26   14   39 1
27   14   40 1
28   14   41 1
29   15   16 1
30   15   42 1
31   15   43 1
32   16   17 1
33   16   44 1
34   16   45 1
35   17   18 1
36   17   46 1
37   17   47 1
38   18   19 am
39   18   48 1
40   19   20 2
41   19   21 1
42   21   22 1
43   21   26 1
44   21   23 1
45   23   24 1
46   23   49 1
47   23   50 1
48   24   25 1
49   24   51 1
50   24   52 1
51   25   26 1
52   25   53 1
53   25   54 1
54   27   28 1
55   27   29 ar
56   29   30 1
57   30   55 1
58   30   56 1
