@<TRIPOS>MOLECULE
ZINC000169621200
106   111   1     0     0
SMALL
USER_CHARGES
@<TRIPOS>ATOM
1      C1     -0.1666    2.7575   -1.3462 C.3      1 ZINC000169621200    0.0300
2      O2      0.1347    1.4509   -0.8523 O.3      1 ZINC000169621200   -0.3700
3      C3      0.7347    0.5877   -1.8204 C.3      1 ZINC000169621200    0.1400
4      H4      0.3812    0.8591   -2.8151 H        1 ZINC000169621200    0.0600
5      C5      2.2297    0.7379   -1.7641 C.2      1 ZINC000169621200   -0.2100
6      C6      2.8406    1.6401   -2.5057 C.2      1 ZINC000169621200    0.0300
7      O7      4.2092    1.6737   -2.5106 O.3      1 ZINC000169621200   -0.3100
8      C8      4.7944    0.5023   -3.0431 C.3      1 ZINC000169621200    0.2200
9      C9      3.8344   -0.1913   -4.0274 C.3      1 ZINC000169621200   -0.2200
10     O10     6.0510    0.6572   -3.7409 O.3      1 ZINC000169621200   -0.2900
11     C11     6.6046   -0.5979   -3.6538 C.ar     1 ZINC000169621200    0.1900
12     C12     7.3615   -1.3168   -4.5757 C.ar     1 ZINC000169621200   -0.3000
13     C13     7.7700   -0.6401   -5.8588 C.3      1 ZINC000169621200   -0.0700
14     C14     7.7539   -2.6241   -4.3630 C.ar     1 ZINC000169621200    0.3700
15     O15     8.3792   -3.3060   -5.3534 O.3      1 ZINC000169621200   -0.6300
16     C16     7.5112   -3.2569   -3.1255 C.ar     1 ZINC000169621200   -0.2500
17     C17     7.7382   -4.6391   -2.9289 C.ar     1 ZINC000169621200    0.3400
18     O18     7.8357   -5.4763   -3.9963 O.3      1 ZINC000169621200   -0.6000
19     C19     7.8614   -5.1395   -1.6252 C.ar     1 ZINC000169621200   -0.1100
20     N20     7.8997   -6.5044   -1.3665 N.am     1 ZINC000169621200   -0.6900
21     C21     7.0090   -7.2990   -1.9730 C.2      1 ZINC000169621200    0.5600
22     O22     7.0390   -7.3653   -3.1884 O.2      1 ZINC000169621200   -0.4200
23     C23     6.0128   -8.0848   -1.2757 C.2      1 ZINC000169621200   -0.1600
24     C24     6.2661   -8.5171    0.1488 C.3      1 ZINC000169621200   -0.1000
25     C25     4.8251   -8.3801   -1.8514 C.2      1 ZINC000169621200   -0.0700
26     C26     4.5179   -7.9745   -3.2180 C.2      1 ZINC000169621200   -0.1200
27     C27     3.3037   -7.5921   -3.5868 C.2      1 ZINC000169621200   -0.1500
28     C28     2.1581   -7.5218   -2.6130 C.3      1 ZINC000169621200   -0.1100
29     H29     2.5086   -7.1101   -1.6665 H        1 ZINC000169621200    0.0900
30     C30     1.5943   -8.9254   -2.3833 C.3      1 ZINC000169621200   -0.1400
31     C31     1.0657   -6.6165   -3.1929 C.3      1 ZINC000169621200    0.1300
32     H32     0.1112   -7.1424   -3.1709 H        1 ZINC000169621200    0.0400
33     O33     1.3930   -6.2847   -4.5437 O.3      1 ZINC000169621200   -0.5300
34     C34     0.9564   -5.3350   -2.3721 C.3      1 ZINC000169621200   -0.1200
35     H35     0.2191   -5.4751   -1.5816 H        1 ZINC000169621200    0.0800
36     C36     2.3157   -5.0180   -1.7455 C.3      1 ZINC000169621200   -0.1500
37     C37     0.5299   -4.1690   -3.2585 C.3      1 ZINC000169621200    0.1200
38     H38     1.4142   -3.7299   -3.7204 H        1 ZINC000169621200    0.1100
39     O39    -0.3409   -4.6538   -4.2825 O.3      1 ZINC000169621200   -0.5300
40     C40    -0.1969   -3.0973   -2.4529 C.3      1 ZINC000169621200   -0.1300
41     H41    -1.2634   -3.1467   -2.6723 H        1 ZINC000169621200    0.0800
42     C42     0.0211   -3.3566   -0.9608 C.3      1 ZINC000169621200   -0.2000
43     C43     0.3221   -1.7023   -2.7992 C.3      1 ZINC000169621200    0.1000
44     H44    -0.3360   -1.2397   -3.5347 H        1 ZINC000169621200    0.0800
45     O45     1.6649   -1.8033   -3.3423 O.3      1 ZINC000169621200   -0.3400
46     C46     1.7737   -2.0881   -4.6495 C.2      1 ZINC000169621200    0.4700
47     C47     3.1217   -2.4112   -5.2407 C.3      1 ZINC000169621200   -0.1900
48     O48     0.7908   -2.0853   -5.3523 O.2      1 ZINC000169621200   -0.5100
49     C49     0.3451   -0.8550   -1.5216 C.3      1 ZINC000169621200   -0.0900
50     H50     1.0635   -1.2833   -0.8227 H        1 ZINC000169621200    0.1000
51     C51    -1.0455   -0.8736   -0.8837 C.3      1 ZINC000169621200   -0.1400
52     C52     7.7869   -4.2008   -0.5578 C.ar     1 ZINC000169621200    0.1100
53     C53     7.2484   -2.9144   -0.7676 C.ar     1 ZINC000169621200   -0.0200
54     N54     7.2219   -2.3184    0.4420 N.2      1 ZINC000169621200   -0.4300
55     C55     7.8354   -3.0759    1.3379 C.2      1 ZINC000169621200    0.1700
56     C56     8.1703   -2.8453    2.6881 C.2      1 ZINC000169621200   -0.0700
57     C57     8.8266   -3.8076    3.3886 C.2      1 ZINC000169621200   -0.1100
58     C58     9.2084   -3.5682    4.8266 C.3      1 ZINC000169621200   -0.1000
59     C59     9.1471   -5.0248    2.7686 C.2      1 ZINC000169621200   -0.2000
60     C60     8.8282   -5.2362    1.4729 C.2      1 ZINC000169621200    0.1100
61     N61     8.1838   -4.2673    0.7572 N.pl3    1 ZINC000169621200   -0.4000
62     C62     6.9860   -2.4472   -2.0725 C.ar     1 ZINC000169621200    0.1700
63     C63     6.2517   -1.2344   -2.4414 C.ar     1 ZINC000169621200   -0.3900
64     C64     5.1351   -0.5016   -1.9203 C.2      1 ZINC000169621200    0.3800
65     O65     4.5855   -0.6383   -0.8460 O.2      1 ZINC000169621200   -0.4700
66     H66     0.7514    3.2397   -1.6820 H        1 ZINC000169621200    0.0400
67     H67    -0.8622    2.6786   -2.1817 H        1 ZINC000169621200    0.0400
68     H68    -0.6190    3.3508   -0.5516 H        1 ZINC000169621200    0.0800
69     H69     2.8077    0.1017   -1.1102 H        1 ZINC000169621200    0.1600
70     H70     2.2715    2.3406   -3.0988 H        1 ZINC000169621200    0.1200
71     H71     3.1419    0.5434   -4.4383 H        1 ZINC000169621200    0.0600
72     H72     4.4078   -0.6426   -4.8371 H        1 ZINC000169621200    0.1000
73     H73     3.2739   -0.9656   -3.5036 H        1 ZINC000169621200    0.1100
74     H74     8.7310   -0.1452   -5.7186 H        1 ZINC000169621200    0.0300
75     H75     7.8566   -1.3843   -6.6505 H        1 ZINC000169621200    0.0600
76     H76     7.0178    0.0987   -6.1354 H        1 ZINC000169621200    0.0300
77     H77     8.5590   -6.8742   -0.7587 H        1 ZINC000169621200    0.3700
78     H78     5.8849   -7.7583    0.8321 H        1 ZINC000169621200    0.0700
79     H79     5.7589   -9.4633    0.3370 H        1 ZINC000169621200    0.0600
80     H80     7.3376   -8.6418    0.3056 H        1 ZINC000169621200    0.0600
81     H81     4.0961   -8.9480   -1.2892 H        1 ZINC000169621200    0.1100
82     H82     5.3071   -7.9893   -3.9717 H        1 ZINC000169621200    0.1400
83     H83     3.1342   -7.3146   -4.6194 H        1 ZINC000169621200    0.1200
84     H84     2.3754   -9.5689   -1.9784 H        1 ZINC000169621200    0.0600
85     H85     0.7649   -8.8729   -1.6779 H        1 ZINC000169621200    0.0500
86     H86     1.2410   -9.3344   -3.3298 H        1 ZINC000169621200    0.0500
87     H87     1.4708   -7.0505   -5.1291 H        1 ZINC000169621200    0.3600
88     H88     3.1093   -5.2984   -2.4382 H        1 ZINC000169621200    0.0700
89     H89     2.3783   -3.9505   -1.5342 H        1 ZINC000169621200    0.0700
90     H90     2.4280   -5.5792   -0.8179 H        1 ZINC000169621200    0.0500
91     H91    -1.1801   -5.0029   -3.9525 H        1 ZINC000169621200    0.3500
92     H92     1.0898   -3.4129   -0.7542 H        1 ZINC000169621200    0.0800
93     H93    -0.4185   -2.5438   -0.3827 H        1 ZINC000169621200    0.0900
94     H94    -0.4528   -4.2980   -0.6827 H        1 ZINC000169621200    0.0600
95     H95     3.2459   -3.4929   -5.2922 H        1 ZINC000169621200    0.1100
96     H96     3.1892   -1.9895   -6.2435 H        1 ZINC000169621200    0.1000
97     H97     3.9049   -1.9850   -4.6138 H        1 ZINC000169621200    0.1300
98     H98    -1.5113   -1.8439   -1.0559 H        1 ZINC000169621200    0.0700
99     H99    -0.9557   -0.6989    0.1885 H        1 ZINC000169621200    0.0700
100    H100   -1.6601   -0.0914   -1.3291 H        1 ZINC000169621200    0.0500
101    H101    7.9076   -1.9111    3.1619 H        1 ZINC000169621200    0.1300
102    H102    8.4006   -3.9027    5.4775 H        1 ZINC000169621200    0.0600
103    H103   10.1164   -4.1247    5.0589 H        1 ZINC000169621200    0.0600
104    H104    9.3843   -2.5040    4.9834 H        1 ZINC000169621200    0.0600
105    H105    9.6518   -5.7970    3.3302 H        1 ZINC000169621200    0.1300
106    H106    9.0835   -6.1738    1.0015 H        1 ZINC000169621200    0.1400
@<TRIPOS>BOND
1     1     2     1
2     1     66    1
3     1     67    1
4     1     68    1
5     2     3     1
6     3     4     1
7     3     49    1
8     3     5     1
9     5     6     2
10    5     69    1
11    6     7     1
12    6     70    1
13    7     8     1
14    8     64    1
15    8     9     1
16    8     10    1
17    9     71    1
18    9     72    1
19    9     73    1
20    10    11    1
21    11    63    ar
22    11    12    ar
23    12    13    1
24    12    14    ar
25    13    74    1
26    13    75    1
27    13    76    1
28    14    15    1
29    14    16    ar
30    16    62    ar
31    16    17    ar
32    17    18    1
33    17    19    ar
34    19    20    1
35    19    52    ar
36    20    21    am
37    20    77    1
38    21    22    2
39    21    23    1
40    23    24    1
41    23    25    2
42    24    78    1
43    24    79    1
44    24    80    1
45    25    26    1
46    25    81    1
47    26    27    2
48    26    82    1
49    27    28    1
50    27    83    1
51    28    29    1
52    28    30    1
53    28    31    1
54    30    84    1
55    30    85    1
56    30    86    1
57    31    32    1
58    31    33    1
59    31    34    1
60    33    87    1
61    34    35    1
62    34    36    1
63    34    37    1
64    36    88    1
65    36    89    1
66    36    90    1
67    37    38    1
68    37    39    1
69    37    40    1
70    39    91    1
71    40    41    1
72    40    42    1
73    40    43    1
74    42    92    1
75    42    93    1
76    42    94    1
77    43    44    1
78    43    45    1
79    43    49    1
80    45    46    1
81    46    47    1
82    46    48    2
83    47    95    1
84    47    96    1
85    47    97    1
86    49    50    1
87    49    51    1
88    51    98    1
89    51    99    1
90    51    100   1
91    52    61    1
92    52    53    ar
93    53    54    1
94    53    62    ar
95    54    55    2
96    55    61    1
97    55    56    1
98    56    57    2
99    56    101   1
100   57    58    1
101   57    59    1
102   58    102   1
103   58    103   1
104   58    104   1
105   59    60    2
106   59    105   1
107   60    61    1
108   60    106   1
109   62    63    ar
110   63    64    1
111   64    65    2
@<TRIPOS>SUBSTRUCTURE
1   ZINC000169621200 1     RESIDUE    1   A     ZIN   1
