@<TRIPOS>MOLECULE
ZINC000000056647
41    43    1     0     0
SMALL
USER_CHARGES
@<TRIPOS>ATOM
1      C1     -1.5830   -0.1320   -0.6081 C.3      1 ZINC000000056647   -0.1800
2      C2     -0.0718    0.0615   -0.4680 C.3      1 ZINC000000056647    0.0000
3      H3      0.4353   -0.4197   -1.3043 H        1 ZINC000000056647    0.1400
4      C4      0.4030   -0.5647    0.8448 C.3      1 ZINC000000056647    0.1100
5      N5      0.1966   -2.0143    0.7971 N.pl3    1 ZINC000000056647   -0.5700
6      C6     -0.9655   -2.5594    1.3548 C.ar     1 ZINC000000056647    0.1700
7      C7     -1.4893   -2.0367    2.5265 C.ar     1 ZINC000000056647   -0.1500
8      C8     -2.6374   -2.5820    3.0747 C.ar     1 ZINC000000056647   -0.0800
9      C9     -3.2673   -3.6472    2.4605 C.ar     1 ZINC000000056647   -0.1200
10     C10    -2.7524   -4.1768    1.2886 C.ar     1 ZINC000000056647   -0.0600
11     C11    -1.6064   -3.6356    0.7364 C.ar     1 ZINC000000056647   -0.1500
12     S12    -0.9331   -4.2901   -0.7580 S.3      1 ZINC000000056647    0.0200
13     C13     0.7846   -3.9343   -0.5633 C.ar     1 ZINC000000056647   -0.1400
14     C14     1.7417   -4.7405   -1.1508 C.ar     1 ZINC000000056647   -0.0600
15     C15     3.0850   -4.4438   -0.9879 C.ar     1 ZINC000000056647   -0.1200
16     C16     3.4662   -3.3456   -0.2413 C.ar     1 ZINC000000056647   -0.0800
17     C17     2.5121   -2.5355    0.3499 C.ar     1 ZINC000000056647   -0.1500
18     C18     1.1631   -2.8240    0.1897 C.ar     1 ZINC000000056647    0.1700
19     N19     0.2400    1.4970   -0.4666 N.4      1 ZINC000000056647   -0.3800
20     H20    -0.2137    1.9390    0.3188 H        1 ZINC000000056647    0.4300
21     C21     1.6934    1.6823   -0.3603 C.3      1 ZINC000000056647   -0.0500
22     C22    -0.2409    2.1037   -1.7150 C.3      1 ZINC000000056647   -0.0500
23     H23    -2.0901    0.3491    0.2282 H        1 ZINC000000056647    0.0800
24     H24    -1.9212    0.3141   -1.5434 H        1 ZINC000000056647    0.0900
25     H25    -1.8144   -1.1972   -0.6091 H        1 ZINC000000056647    0.1100
26     H26     1.4629   -0.3531    0.9859 H        1 ZINC000000056647    0.1000
27     H27    -0.1652   -0.1440    1.6744 H        1 ZINC000000056647    0.1000
28     H28    -1.0016   -1.2042    3.0120 H        1 ZINC000000056647    0.1300
29     H29    -3.0429   -2.1726    3.9881 H        1 ZINC000000056647    0.1400
30     H30    -4.1622   -4.0678    2.8948 H        1 ZINC000000056647    0.1400
31     H31    -3.2442   -5.0097    0.8082 H        1 ZINC000000056647    0.1400
32     H32     1.4432   -5.5987   -1.7345 H        1 ZINC000000056647    0.1400
33     H33     3.8353   -5.0720   -1.4448 H        1 ZINC000000056647    0.1400
34     H34     4.5147   -3.1181   -0.1179 H        1 ZINC000000056647    0.1400
35     H35     2.8170   -1.6784    0.9320 H        1 ZINC000000056647    0.1300
36     H36     1.9357    2.7370   -0.4906 H        1 ZINC000000056647    0.1300
37     H37     2.0311    1.3506    0.6215 H        1 ZINC000000056647    0.1200
38     H38     2.1918    1.0968   -1.1329 H        1 ZINC000000056647    0.1200
39     H39    -1.3194    1.9662   -1.7939 H        1 ZINC000000056647    0.1300
40     H40    -0.0096    3.1689   -1.7140 H        1 ZINC000000056647    0.1300
41     H41     0.2492    1.6262   -2.5635 H        1 ZINC000000056647    0.1200
@<TRIPOS>BOND
1     1     2     1
2     1     23    1
3     1     24    1
4     1     25    1
5     2     3     1
6     2     4     1
7     2     19    1
8     4     5     1
9     4     26    1
10    4     27    1
11    5     18    1
12    5     6     1
13    6     11    ar
14    6     7     ar
15    7     8     ar
16    7     28    1
17    8     9     ar
18    8     29    1
19    9     10    ar
20    9     30    1
21    10    11    ar
22    10    31    1
23    11    12    1
24    12    13    1
25    13    18    ar
26    13    14    ar
27    14    15    ar
28    14    32    1
29    15    16    ar
30    15    33    1
31    16    17    ar
32    16    34    1
33    17    18    ar
34    17    35    1
35    19    20    1
36    19    21    1
37    19    22    1
38    21    36    1
39    21    37    1
40    21    38    1
41    22    39    1
42    22    40    1
43    22    41    1
@<TRIPOS>SUBSTRUCTURE
1   ZINC000000056647 1     RESIDUE    1   A     ZIN   1
