@<TRIPOS>MOLECULE
ZINC000000020230
39    39    1     0     0
SMALL
USER_CHARGES
@<TRIPOS>ATOM
1      C1     -0.0187    1.5258    0.0104 C.3      1 ZINC000000020230   -0.1800
2      C2      0.0021   -0.0041    0.0020 C.3      1 ZINC000000020230    0.0600
3      C3      0.7421   -0.5109    1.2415 C.3      1 ZINC000000020230   -0.1800
4      C4     -1.4333   -0.5336    0.0129 C.3      1 ZINC000000020230   -0.1800
5      N5      0.6897   -0.4778   -1.2066 N.4      1 ZINC000000020230   -0.5000
6      H6      0.7033   -1.4867   -1.2121 H        1 ZINC000000020230    0.4300
7      H7      0.2017   -0.1436   -2.0240 H        1 ZINC000000020230    0.4300
8      C8      2.0678    0.0307   -1.2170 C.3      1 ZINC000000020230   -0.0500
9      C9      2.7840   -0.4628   -2.4758 C.3      1 ZINC000000020230    0.1400
10     H10     2.7213   -1.5498   -2.5270 H        1 ZINC000000020230    0.1300
11     O11     2.1628    0.1050   -3.6307 O.3      1 ZINC000000020230   -0.5500
12     C12     4.2310   -0.0447   -2.4270 C.ar     1 ZINC000000020230   -0.1500
13     C13     4.5877    1.2474   -2.7653 C.ar     1 ZINC000000020230   -0.0900
14     C14     5.9136    1.6333   -2.7209 C.ar     1 ZINC000000020230   -0.1400
15     C15     6.8872    0.7230   -2.3366 C.ar     1 ZINC000000020230    0.1300
16     O16     8.1920    1.1003   -2.2918 O.3      1 ZINC000000020230   -0.4900
17     C17     6.5266   -0.5732   -1.9976 C.ar     1 ZINC000000020230   -0.1100
18     C18     7.5816   -1.5646   -1.5792 C.3      1 ZINC000000020230    0.1200
19     O19     6.9655   -2.8194   -1.2830 O.3      1 ZINC000000020230   -0.5800
20     C20     5.1991   -0.9526   -2.0385 C.ar     1 ZINC000000020230   -0.0600
21     H21     1.0039    1.9031    0.0027 H        1 ZINC000000020230    0.0800
22     H22    -0.5459    1.8868   -0.8726 H        1 ZINC000000020230    0.0800
23     H23    -0.5289    1.8773    0.9072 H        1 ZINC000000020230    0.1100
24     H24     0.2319   -0.1594    2.1383 H        1 ZINC000000020230    0.1100
25     H25     0.7568   -1.6008    1.2356 H        1 ZINC000000020230    0.0800
26     H26     1.7647   -0.1336    1.2338 H        1 ZINC000000020230    0.0800
27     H27    -1.9605   -0.1726   -0.8702 H        1 ZINC000000020230    0.0800
28     H28    -1.4185   -1.6235    0.0069 H        1 ZINC000000020230    0.0800
29     H29    -1.9435   -0.1821    0.9097 H        1 ZINC000000020230    0.1100
30     H30     2.0530    1.1205   -1.2110 H        1 ZINC000000020230    0.1400
31     H31     2.5950   -0.3304   -0.3340 H        1 ZINC000000020230    0.1500
32     H32     2.1814    1.0716   -3.6522 H        1 ZINC000000020230    0.3900
33     H33     3.8294    1.9557   -3.0647 H        1 ZINC000000020230    0.1300
34     H34     6.1919    2.6427   -2.9855 H        1 ZINC000000020230    0.1400
35     H35     8.4690    1.4574   -1.4368 H        1 ZINC000000020230    0.4000
36     H36     8.2996   -1.6945   -2.3889 H        1 ZINC000000020230    0.0700
37     H37     8.0967   -1.1945   -0.6927 H        1 ZINC000000020230    0.0600
38     H38     7.5865   -3.5069   -1.0060 H        1 ZINC000000020230    0.3900
39     H39     4.9178   -1.9613   -1.7744 H        1 ZINC000000020230    0.1400
@<TRIPOS>BOND
1     1     2     1
2     1     21    1
3     1     22    1
4     1     23    1
5     2     3     1
6     2     4     1
7     2     5     1
8     3     24    1
9     3     25    1
10    3     26    1
11    4     27    1
12    4     28    1
13    4     29    1
14    5     6     1
15    5     7     1
16    5     8     1
17    8     9     1
18    8     30    1
19    8     31    1
20    9     10    1
21    9     11    1
22    9     12    1
23    11    32    1
24    12    20    ar
25    12    13    ar
26    13    14    ar
27    13    33    1
28    14    15    ar
29    14    34    1
30    15    16    1
31    15    17    ar
32    16    35    1
33    17    18    1
34    17    20    ar
35    18    19    1
36    18    36    1
37    18    37    1
38    19    38    1
39    20    39    1
@<TRIPOS>SUBSTRUCTURE
1   ZINC000000020230 1     RESIDUE    1   A     ZIN   1
