@<TRIPOS>MOLECULE
ZINC000000156792
53    53    1     0     0
SMALL
USER_CHARGES
@<TRIPOS>ATOM
1      C1      1.2779    1.5418    0.3473 C.3      1 ZINC000000156792   -0.1600
2      C2      1.3074    0.0121    0.3390 C.3      1 ZINC000000156792   -0.1100
3      C3      1.2964   -0.4904   -1.1061 C.3      1 ZINC000000156792   -0.1400
4      C4      1.3255   -1.9971   -1.1143 C.2      1 ZINC000000156792    0.5200
5      O5      1.3523   -2.6088   -0.0673 O.2      1 ZINC000000156792   -0.5200
6      N6      1.3217   -2.6648   -2.2851 N.am     1 ZINC000000156792   -0.6800
7      C7      1.4463   -4.0605   -2.2961 C.ar     1 ZINC000000156792    0.1100
8      C8      0.8676   -4.8166   -1.2815 C.ar     1 ZINC000000156792   -0.0500
9      C9      0.9842   -6.1920   -1.2825 C.ar     1 ZINC000000156792   -0.2000
10     C10     1.6807   -6.8319   -2.2962 C.ar     1 ZINC000000156792    0.1600
11     O11     1.7942   -8.1838   -2.2953 O.3      1 ZINC000000156792   -0.2700
12     C12     1.1708   -8.8864   -1.2184 C.3      1 ZINC000000156792    0.0200
13     C13     1.4043  -10.3891   -1.3869 C.3      1 ZINC000000156792    0.0900
14     H14     1.0551  -10.7030   -2.3706 H        1 ZINC000000156792    0.1400
15     O15     2.7999  -10.6709   -1.2646 O.3      1 ZINC000000156792   -0.5400
16     C16     0.6338  -11.1494   -0.3056 C.3      1 ZINC000000156792   -0.0500
17     N17     0.8581  -12.5921   -0.4674 N.4      1 ZINC000000156792   -0.5000
18     H18     0.5348  -12.8827   -1.3780 H        1 ZINC000000156792    0.4300
19     H19     1.8435  -12.7911   -0.3810 H        1 ZINC000000156792    0.4300
20     C20     0.1183  -13.3221    0.5708 C.3      1 ZINC000000156792    0.0200
21     C21    -1.3841  -13.1203    0.3637 C.3      1 ZINC000000156792   -0.1900
22     C22     0.4498  -14.8130    0.4803 C.3      1 ZINC000000156792   -0.1900
23     C23     2.2681   -6.0764   -3.3242 C.ar     1 ZINC000000156792   -0.1800
24     C24     3.0071   -6.7452   -4.4019 C.2      1 ZINC000000156792    0.3900
25     C25     3.6356   -5.9304   -5.5029 C.3      1 ZINC000000156792   -0.2000
26     O26     3.1118   -7.9537   -4.4063 O.2      1 ZINC000000156792   -0.4400
27     C27     2.1396   -4.6828   -3.3185 C.ar     1 ZINC000000156792   -0.0600
28     H28     2.1532    1.9249   -0.1772 H        1 ZINC000000156792    0.0600
29     H29     0.3737    1.8904   -0.1517 H        1 ZINC000000156792    0.0600
30     H30     1.2857    1.8997    1.3769 H        1 ZINC000000156792    0.0600
31     H31     2.2115   -0.3366    0.8380 H        1 ZINC000000156792    0.0700
32     H32     0.4321   -0.3711    0.8635 H        1 ZINC000000156792    0.0700
33     H33     0.3923   -0.1417   -1.6052 H        1 ZINC000000156792    0.1000
34     H34     2.1717   -0.1072   -1.6306 H        1 ZINC000000156792    0.1000
35     H35     1.2326   -2.1792   -3.1200 H        1 ZINC000000156792    0.4200
36     H36     0.3242   -4.3245   -0.4885 H        1 ZINC000000156792    0.1500
37     H37     0.5318   -6.7712   -0.4911 H        1 ZINC000000156792    0.1300
38     H38     1.5996   -8.5559   -0.2724 H        1 ZINC000000156792    0.0800
39     H39     0.1001   -8.6824   -1.2229 H        1 ZINC000000156792    0.0800
40     H40     3.1792  -10.4170   -0.4120 H        1 ZINC000000156792    0.3900
41     H41     0.9830  -10.8355    0.6781 H        1 ZINC000000156792    0.1400
42     H42    -0.4307  -10.9344   -0.3989 H        1 ZINC000000156792    0.1500
43     H43     0.4035  -12.9454    1.5530 H        1 ZINC000000156792    0.1400
44     H44    -1.6694  -13.4970   -0.6185 H        1 ZINC000000156792    0.0800
45     H45    -1.9331  -13.6619    1.1340 H        1 ZINC000000156792    0.1100
46     H46    -1.6203  -12.0581    0.4281 H        1 ZINC000000156792    0.0800
47     H47     1.5202  -14.9568    0.6278 H        1 ZINC000000156792    0.0800
48     H48    -0.0991  -15.3547    1.2507 H        1 ZINC000000156792    0.1100
49     H49     0.1646  -15.1897   -0.5019 H        1 ZINC000000156792    0.0800
50     H50     4.6532   -5.6609   -5.2198 H        1 ZINC000000156792    0.1000
51     H51     3.6572   -6.5165   -6.4216 H        1 ZINC000000156792    0.0900
52     H52     3.0512   -5.0245   -5.6634 H        1 ZINC000000156792    0.0900
53     H53     2.5879   -4.0944   -4.1054 H        1 ZINC000000156792    0.1500
@<TRIPOS>BOND
1     1     2     1
2     1     28    1
3     1     29    1
4     1     30    1
5     2     3     1
6     2     31    1
7     2     32    1
8     3     4     1
9     3     33    1
10    3     34    1
11    4     5     2
12    4     6     am
13    6     7     1
14    6     35    1
15    7     27    ar
16    7     8     ar
17    8     9     ar
18    8     36    1
19    9     10    ar
20    9     37    1
21    10    11    1
22    10    23    ar
23    11    12    1
24    12    13    1
25    12    38    1
26    12    39    1
27    13    14    1
28    13    15    1
29    13    16    1
30    15    40    1
31    16    17    1
32    16    41    1
33    16    42    1
34    17    18    1
35    17    19    1
36    17    20    1
37    20    21    1
38    20    22    1
39    20    43    1
40    21    44    1
41    21    45    1
42    21    46    1
43    22    47    1
44    22    48    1
45    22    49    1
46    23    24    1
47    23    27    ar
48    24    25    1
49    24    26    2
50    25    50    1
51    25    51    1
52    25    52    1
53    27    53    1
@<TRIPOS>SUBSTRUCTURE
1   ZINC000000156792 1     RESIDUE    1   A     ZIN   1
