@<TRIPOS>MOLECULE
ZINC000003830347
31    31    1     0     0
SMALL
USER_CHARGES
@<TRIPOS>ATOM
1      C1      0.2869    1.0791   -0.7706 C.2      1 ZINC000003830347   -0.1800
2      C2      0.2914   -0.2132   -0.5559 C.2      1 ZINC000003830347   -0.1600
3      C3      1.5978   -0.9423   -0.3748 C.3      1 ZINC000003830347   -0.0700
4      C4      1.5756   -1.7071    0.9502 C.3      1 ZINC000003830347   -0.1600
5      C5      2.8809   -2.4974    1.0618 C.3      1 ZINC000003830347   -0.0900
6      C6      2.8260   -3.4014    2.2950 C.3      1 ZINC000003830347   -0.1000
7      C7      4.0408   -4.3314    2.3001 C.3      1 ZINC000003830347   -0.1400
8      C8      2.8377   -2.5402    3.5595 C.3      1 ZINC000003830347   -0.1800
9      C9      1.5437   -0.6944    2.0792 C.2      1 ZINC000003830347    0.5400
10     O10     2.4160    0.1386    2.2014 O.2      1 ZINC000003830347   -0.5500
11     N11     0.5077   -0.7549    2.9425 N.pl3    1 ZINC000003830347   -0.7100
12     C12    -0.4630   -1.6676    2.8213 C.2      1 ZINC000003830347    0.6600
13     O13    -1.3582   -1.6501    3.6424 O.2      1 ZINC000003830347   -0.6000
14     N14    -0.5202   -2.5980    1.8615 N.am     1 ZINC000003830347   -0.7000
15     C15     0.4269   -2.6969    0.9047 C.2      1 ZINC000003830347    0.5500
16     O16     0.3621   -3.5456    0.0413 O.2      1 ZINC000003830347   -0.5300
17     H17     1.2194    1.6219   -0.8179 H        1 ZINC000003830347    0.1000
18     H18    -0.6491    1.6009   -0.9048 H        1 ZINC000003830347    0.0900
19     H19    -0.6410   -0.7560   -0.5086 H        1 ZINC000003830347    0.1000
20     H20     1.7393   -1.6439   -1.1969 H        1 ZINC000003830347    0.0800
21     H21     2.4170   -0.2233   -0.3656 H        1 ZINC000003830347    0.0800
22     H22     3.0132   -3.1085    0.1690 H        1 ZINC000003830347    0.0700
23     H23     3.7178   -1.8053    1.1557 H        1 ZINC000003830347    0.0800
24     H24     1.9130   -3.9963    2.2690 H        1 ZINC000003830347    0.0600
25     H25     4.9538   -3.7365    2.3261 H        1 ZINC000003830347    0.0500
26     H26     4.0016   -4.9755    3.1786 H        1 ZINC000003830347    0.0500
27     H27     4.0325   -4.9450    1.3992 H        1 ZINC000003830347    0.0500
28     H28     3.6200   -1.7856    3.4781 H        1 ZINC000003830347    0.0600
29     H29     1.8708   -2.0501    3.6744 H        1 ZINC000003830347    0.0900
30     H30     3.0304   -3.1712    4.4271 H        1 ZINC000003830347    0.0400
31     H31    -1.2642   -3.2203    1.8532 H        1 ZINC000003830347    0.3900
@<TRIPOS>BOND
1     1     2     2
2     1     17    1
3     1     18    1
4     2     3     1
5     2     19    1
6     3     4     1
7     3     20    1
8     3     21    1
9     4     15    1
10    4     5     1
11    4     9     1
12    5     6     1
13    5     22    1
14    5     23    1
15    6     7     1
16    6     8     1
17    6     24    1
18    7     25    1
19    7     26    1
20    7     27    1
21    8     28    1
22    8     29    1
23    8     30    1
24    9     10    2
25    9     11    1
26    11    12    1
27    12    13    2
28    12    14    am
29    14    15    am
30    14    31    1
31    15    16    2
@<TRIPOS>SUBSTRUCTURE
1   ZINC000003830347 1     RESIDUE    1   A     ZIN   1
