@<TRIPOS>MOLECULE
ZINC000001530601
58    60    1     0     0
SMALL
USER_CHARGES
@<TRIPOS>ATOM
1      C1     -0.6590    1.1115    0.1314 C.3      1 ZINC000001530601   -0.1900
2      C2     -0.4672   -0.3845   -0.1259 C.3      1 ZINC000001530601   -0.0200
3      N3      0.4751   -0.9337    0.8581 N.4      1 ZINC000001530601   -0.3900
4      H4      1.3346   -0.4059    0.8318 H        1 ZINC000001530601    0.4300
5      C5     -0.1128   -0.8453    2.2015 C.3      1 ZINC000001530601   -0.0100
6      C6      0.9187   -1.2907    3.2399 C.3      1 ZINC000001530601   -0.1900
7      C7      0.7539   -2.3399    0.5373 C.3      1 ZINC000001530601   -0.0100
8      C8      1.4793   -2.4220   -0.8074 C.3      1 ZINC000001530601    0.0300
9      O9      2.7602   -1.7984   -0.6965 O.3      1 ZINC000001530601   -0.3300
10     C10     3.5382   -1.7849   -1.8103 C.ar     1 ZINC000001530601    0.1200
11     C11     3.0726   -2.3565   -2.9872 C.ar     1 ZINC000001530601   -0.2000
12     C12     3.8590   -2.3449   -4.1194 C.ar     1 ZINC000001530601   -0.0500
13     C13     5.1247   -1.7575   -4.0818 C.ar     1 ZINC000001530601   -0.0500
14     C14     5.9716   -1.7424   -5.2946 C.2      1 ZINC000001530601   -0.0300
15     C15     5.5918   -1.0196   -6.3783 C.2      1 ZINC000001530601   -0.0100
16     Cl16    6.4984   -1.1274   -7.8548 Cl       1 ZINC000001530601   -0.0500
17     C17     4.4115   -0.1444   -6.3021 C.ar     1 ZINC000001530601   -0.0600
18     C18     4.2679    0.7511   -5.2373 C.ar     1 ZINC000001530601   -0.0900
19     C19     3.1592    1.5682   -5.1732 C.ar     1 ZINC000001530601   -0.1200
20     C20     2.1895    1.5037   -6.1587 C.ar     1 ZINC000001530601   -0.1100
21     C21     2.3240    0.6199   -7.2153 C.ar     1 ZINC000001530601   -0.1200
22     C22     3.4300   -0.1995   -7.2970 C.ar     1 ZINC000001530601   -0.0900
23     C23     7.2328   -2.5155   -5.3260 C.ar     1 ZINC000001530601   -0.0600
24     C24     7.2023   -3.9091   -5.2588 C.ar     1 ZINC000001530601   -0.1000
25     C25     8.3818   -4.6240   -5.2890 C.ar     1 ZINC000001530601   -0.1200
26     C26     9.5931   -3.9623   -5.3852 C.ar     1 ZINC000001530601   -0.1100
27     C27     9.6302   -2.5808   -5.4521 C.ar     1 ZINC000001530601   -0.1200
28     C28     8.4576   -1.8544   -5.4287 C.ar     1 ZINC000001530601   -0.0900
29     C29     5.5891   -1.1839   -2.8968 C.ar     1 ZINC000001530601   -0.0600
30     C30     4.7945   -1.1946   -1.7704 C.ar     1 ZINC000001530601   -0.1400
31     H31     0.3124    1.6060    0.1409 H        1 ZINC000001530601    0.0800
32     H32    -1.2769    1.5396   -0.6579 H        1 ZINC000001530601    0.1100
33     H33    -1.1490    1.2547    1.0944 H        1 ZINC000001530601    0.0800
34     H34    -1.4261   -0.8946   -0.0348 H        1 ZINC000001530601    0.1300
35     H35    -0.0709   -0.5325   -1.1304 H        1 ZINC000001530601    0.1300
36     H36    -0.4085    0.1846    2.4016 H        1 ZINC000001530601    0.1300
37     H37    -0.9882   -1.4922    2.2583 H        1 ZINC000001530601    0.1300
38     H38     1.1391   -2.3493    3.1024 H        1 ZINC000001530601    0.0800
39     H39     1.8329   -0.7102    3.1161 H        1 ZINC000001530601    0.0800
40     H40     0.5190   -1.1299    4.2412 H        1 ZINC000001530601    0.1100
41     H41     1.3820   -2.7726    1.3159 H        1 ZINC000001530601    0.1400
42     H42    -0.1840   -2.8920    0.4785 H        1 ZINC000001530601    0.1500
43     H43     1.6072   -3.4675   -1.0879 H        1 ZINC000001530601    0.1100
44     H44     0.8910   -1.9107   -1.5694 H        1 ZINC000001530601    0.0900
45     H45     2.0934   -2.8111   -3.0154 H        1 ZINC000001530601    0.1300
46     H46     3.4963   -2.7899   -5.0341 H        1 ZINC000001530601    0.1300
47     H47     5.0234    0.8022   -4.4671 H        1 ZINC000001530601    0.1200
48     H48     3.0469    2.2603   -4.3517 H        1 ZINC000001530601    0.1200
49     H49     1.3232    2.1461   -6.1027 H        1 ZINC000001530601    0.1200
50     H50     1.5629    0.5751   -7.9803 H        1 ZINC000001530601    0.1300
51     H51     3.5337   -0.8884   -8.1223 H        1 ZINC000001530601    0.1300
52     H52     6.2575   -4.4267   -5.1830 H        1 ZINC000001530601    0.1200
53     H53     8.3596   -5.7026   -5.2370 H        1 ZINC000001530601    0.1300
54     H54    10.5137   -4.5266   -5.4077 H        1 ZINC000001530601    0.1300
55     H55    10.5790   -2.0703   -5.5268 H        1 ZINC000001530601    0.1300
56     H56     8.4878   -0.7761   -5.4814 H        1 ZINC000001530601    0.1200
57     H57     6.5680   -0.7288   -2.8638 H        1 ZINC000001530601    0.1400
58     H58     5.1530   -0.7507   -0.8534 H        1 ZINC000001530601    0.1400
@<TRIPOS>BOND
1     1     2     1
2     1     31    1
3     1     32    1
4     1     33    1
5     2     3     1
6     2     34    1
7     2     35    1
8     3     4     1
9     3     5     1
10    3     7     1
11    5     6     1
12    5     36    1
13    5     37    1
14    6     38    1
15    6     39    1
16    6     40    1
17    7     8     1
18    7     41    1
19    7     42    1
20    8     9     1
21    8     43    1
22    8     44    1
23    9     10    1
24    10    30    ar
25    10    11    ar
26    11    12    ar
27    11    45    1
28    12    13    ar
29    12    46    1
30    13    14    1
31    13    29    ar
32    14    15    2
33    14    23    1
34    15    16    1
35    15    17    1
36    17    22    ar
37    17    18    ar
38    18    19    ar
39    18    47    1
40    19    20    ar
41    19    48    1
42    20    21    ar
43    20    49    1
44    21    22    ar
45    21    50    1
46    22    51    1
47    23    28    ar
48    23    24    ar
49    24    25    ar
50    24    52    1
51    25    26    ar
52    25    53    1
53    26    27    ar
54    26    54    1
55    27    28    ar
56    27    55    1
57    28    56    1
58    29    30    ar
59    29    57    1
60    30    58    1
@<TRIPOS>SUBSTRUCTURE
1   ZINC000001530601 1     RESIDUE    1   A     ZIN   1
