@<TRIPOS>MOLECULE
ZINC000000057254
40    41    1     0     0
SMALL
USER_CHARGES
@<TRIPOS>ATOM
1      C1      0.5430    1.0167   -1.7426 C.3      1 ZINC000000057254    0.0200
2      N2      0.3545   -0.2967   -1.1124 N.3      1 ZINC000000057254   -0.5500
3      C3      1.2634   -0.4684    0.0288 C.3      1 ZINC000000057254    0.0200
4      C4     -1.0438   -0.4896   -0.7055 C.3      1 ZINC000000057254    0.0500
5      C5     -1.9330   -0.5516   -1.9490 C.3      1 ZINC000000057254   -0.1400
6      C6     -3.3893   -0.7525   -1.5252 C.3      1 ZINC000000057254    0.2200
7      O7     -3.5082   -1.9740   -0.7932 O.3      1 ZINC000000057254   -0.5400
8      C8     -4.2651   -0.8136   -2.7501 C.ar     1 ZINC000000057254   -0.1100
9      C9     -4.3931    0.2962   -3.5642 C.ar     1 ZINC000000057254   -0.1100
10     C10    -5.1965    0.2402   -4.6878 C.ar     1 ZINC000000057254   -0.1200
11     C11    -5.8714   -0.9257   -4.9974 C.ar     1 ZINC000000057254   -0.1200
12     C12    -5.7427   -2.0358   -4.1838 C.ar     1 ZINC000000057254   -0.1200
13     C13    -4.9359   -1.9811   -3.0626 C.ar     1 ZINC000000057254   -0.1000
14     C14    -3.8225    0.3989   -0.6548 C.ar     1 ZINC000000057254   -0.0600
15     C15    -3.0555    1.5469   -0.5951 C.ar     1 ZINC000000057254   -0.1000
16     C16    -3.4529    2.6033    0.2035 C.ar     1 ZINC000000057254   -0.1200
17     C17    -4.6171    2.5118    0.9429 C.ar     1 ZINC000000057254   -0.1000
18     C18    -5.3852    1.3640    0.8840 C.ar     1 ZINC000000057254   -0.1200
19     C19    -4.9914    0.3091    0.0804 C.ar     1 ZINC000000057254   -0.0100
20     Cl20   -5.9554   -1.1327    0.0059 Cl       1 ZINC000000057254   -0.0500
21     H21     1.5698    1.1056   -2.0972 H        1 ZINC000000057254    0.0700
22     H22    -0.1421    1.1175   -2.5844 H        1 ZINC000000057254    0.0700
23     H23     0.3410    1.8017   -1.0139 H        1 ZINC000000057254    0.0300
24     H24     1.0199    0.2622    0.8002 H        1 ZINC000000057254    0.0300
25     H25     1.1527   -1.4744    0.4334 H        1 ZINC000000057254    0.0700
26     H26     2.2919   -0.3202   -0.3003 H        1 ZINC000000057254    0.0700
27     H27    -1.1345   -1.4214   -0.1471 H        1 ZINC000000057254    0.0800
28     H28    -1.3572    0.3432   -0.0759 H        1 ZINC000000057254    0.0500
29     H29    -1.8423    0.3801   -2.5074 H        1 ZINC000000057254    0.0800
30     H30    -1.6196   -1.3844   -2.5786 H        1 ZINC000000057254    0.0800
31     H31    -3.2456   -2.7591   -1.2929 H        1 ZINC000000057254    0.3800
32     H32    -3.8658    1.2072   -3.3223 H        1 ZINC000000057254    0.1200
33     H33    -5.2971    1.1075   -5.3234 H        1 ZINC000000057254    0.1200
34     H34    -6.4996   -0.9693   -5.8748 H        1 ZINC000000057254    0.1200
35     H35    -6.2702   -2.9466   -4.4255 H        1 ZINC000000057254    0.1200
36     H36    -4.8353   -2.8484   -2.4269 H        1 ZINC000000057254    0.1300
37     H37    -2.1454    1.6187   -1.1720 H        1 ZINC000000057254    0.1300
38     H38    -2.8531    3.5003    0.2499 H        1 ZINC000000057254    0.1300
39     H39    -4.9266    3.3371    1.5670 H        1 ZINC000000057254    0.1300
40     H40    -6.2948    1.2925    1.4617 H        1 ZINC000000057254    0.1300
@<TRIPOS>BOND
1     1     2     1
2     1     21    1
3     1     22    1
4     1     23    1
5     2     3     1
6     2     4     1
7     3     24    1
8     3     25    1
9     3     26    1
10    4     5     1
11    4     27    1
12    4     28    1
13    5     6     1
14    5     29    1
15    5     30    1
16    6     7     1
17    6     8     1
18    6     14    1
19    7     31    1
20    8     13    ar
21    8     9     ar
22    9     10    ar
23    9     32    1
24    10    11    ar
25    10    33    1
26    11    12    ar
27    11    34    1
28    12    13    ar
29    12    35    1
30    13    36    1
31    14    19    ar
32    14    15    ar
33    15    16    ar
34    15    37    1
35    16    17    ar
36    16    38    1
37    17    18    ar
38    17    39    1
39    18    19    ar
40    18    40    1
41    19    20    1
@<TRIPOS>SUBSTRUCTURE
1   ZINC000000057254 1     RESIDUE    1   A     ZIN   1
