@<TRIPOS>MOLECULE
ZINC000003806262
36    38    1     0     0
SMALL
USER_CHARGES
@<TRIPOS>ATOM
1      O1     -0.0173    1.4248    0.0099 O.3      1 ZINC000003806262   -0.5700
2      C2      0.0021   -0.0041    0.0020 C.3      1 ZINC000003806262    0.0800
3      C3     -1.4333   -0.5336    0.0129 C.3      1 ZINC000003806262    0.0900
4      H4     -1.9871   -0.1096    0.8505 H        1 ZINC000003806262    0.1100
5      O5     -2.0929   -0.2241   -1.2341 O.3      1 ZINC000003806262   -0.3500
6      C6     -3.1943   -1.1540   -1.3231 C.3      1 ZINC000003806262    0.2900
7      H7     -4.0192   -0.8268   -0.6902 H        1 ZINC000003806262    0.1300
8      N8     -3.6398   -1.2855   -2.7125 N.pl3    1 ZINC000003806262   -0.4300
9      C9     -2.9006   -1.0373   -3.8271 C.cat    1 ZINC000003806262    0.3200
10     N10    -3.6442   -1.2498   -4.8755 N.pl3    1 ZINC000003806262   -0.4500
11     H11    -3.3557   -1.1472   -5.7960 H        1 ZINC000003806262    0.4700
12     C12    -4.8756   -1.6339   -4.4851 C.2      1 ZINC000003806262   -0.0100
13     C13    -4.8798   -1.6881   -3.1378 C.2      1 ZINC000003806262    0.3400
14     N14    -5.9259   -2.0996   -2.3125 N.pl3    1 ZINC000003806262   -0.7100
15     C15    -6.6855   -3.1875   -2.6714 C.2      1 ZINC000003806262    0.3800
16     N16    -7.3425   -3.1604   -3.7656 N.2      1 ZINC000003806262   -0.5100
17     C17    -7.3334   -2.0307   -4.6778 C.3      1 ZINC000003806262    0.0200
18     C18    -6.0162   -1.9184   -5.4300 C.3      1 ZINC000003806262    0.1800
19     H19    -5.8255   -2.8524   -5.9584 H        1 ZINC000003806262    0.1000
20     O20    -6.1074   -0.8535   -6.3785 O.3      1 ZINC000003806262   -0.5600
21     C21    -2.6218   -2.4941   -0.8103 C.3      1 ZINC000003806262   -0.2000
22     C22    -1.4367   -2.0764    0.0918 C.3      1 ZINC000003806262    0.0800
23     H23    -0.5011   -2.4794   -0.2959 H        1 ZINC000003806262    0.0900
24     O24    -1.6510   -2.5150    1.4349 O.3      1 ZINC000003806262   -0.5500
25     H25     0.8606    1.8301    0.0037 H        1 ZINC000003806262    0.3900
26     H26     0.5123   -0.3556   -0.8948 H        1 ZINC000003806262    0.0600
27     H27     0.5293   -0.3651    0.8851 H        1 ZINC000003806262    0.0800
28     H28    -1.8693   -0.7170   -3.8406 H        1 ZINC000003806262    0.2700
29     H29    -6.1161   -1.6214   -1.4902 H        1 ZINC000003806262    0.4300
30     H30    -6.7259   -4.0579   -2.0333 H        1 ZINC000003806262    0.2100
31     H31    -8.1430   -2.1503   -5.3977 H        1 ZINC000003806262    0.1200
32     H32    -7.4994   -1.1154   -4.1096 H        1 ZINC000003806262    0.0800
33     H33    -6.8059   -0.9716   -7.0366 H        1 ZINC000003806262    0.4100
34     H34    -3.3710   -3.0321   -0.2294 H        1 ZINC000003806262    0.1200
35     H35    -2.2728   -3.1041   -1.6435 H        1 ZINC000003806262    0.1000
36     H36    -1.7204   -3.4749    1.5288 H        1 ZINC000003806262    0.4000
@<TRIPOS>BOND
1     1     2     1
2     1     25    1
3     2     3     1
4     2     26    1
5     2     27    1
6     3     4     1
7     3     22    1
8     3     5     1
9     5     6     1
10    6     7     1
11    6     8     1
12    6     21    1
13    8     13    1
14    8     9     ar
15    9     10    ar
16    9     28    1
17    10    11    1
18    10    12    1
19    12    18    1
20    12    13    2
21    13    14    1
22    14    15    1
23    14    29    1
24    15    16    2
25    15    30    1
26    16    17    1
27    17    18    1
28    17    31    1
29    17    32    1
30    18    19    1
31    18    20    1
32    20    33    1
33    21    22    1
34    21    34    1
35    21    35    1
36    22    23    1
37    22    24    1
38    24    36    1
@<TRIPOS>SUBSTRUCTURE
1   ZINC000003806262 1     RESIDUE    1   A     ZIN   1
