@<TRIPOS>MOLECULE
ZINC000001690324
32    33    1     0     0
SMALL
USER_CHARGES
@<TRIPOS>ATOM
1      C1      0.5090    2.1469   -0.4576 C.3      1 ZINC000001690324    0.0200
2      O2      0.3860    0.7326   -0.2935 O.3      1 ZINC000001690324   -0.2800
3      C3      0.8963   -0.0485   -1.2787 C.ar     1 ZINC000001690324    0.2400
4      C4      1.5077    0.5373   -2.3776 C.ar     1 ZINC000001690324   -0.2700
5      C5      2.0288   -0.2585   -3.3836 C.ar     1 ZINC000001690324    0.2000
6      O6      2.6282    0.3083   -4.4602 O.3      1 ZINC000001690324   -0.4900
7      C7      1.9336   -1.6563   -3.2826 C.ar     1 ZINC000001690324   -0.2500
8      C8      2.4839   -2.5132   -4.3450 C.2      1 ZINC000001690324    0.4600
9      O9      3.5315   -3.1051   -4.1673 O.2      1 ZINC000001690324   -0.4500
10     C10     1.7635   -2.6546   -5.6281 C.ar     1 ZINC000001690324   -0.1500
11     C11     0.5094   -2.0643   -5.7970 C.ar     1 ZINC000001690324   -0.0500
12     C12    -0.1572   -2.1998   -6.9970 C.ar     1 ZINC000001690324   -0.1300
13     C13     0.4140   -2.9191   -8.0319 C.ar     1 ZINC000001690324   -0.0900
14     C14     1.6565   -3.5067   -7.8713 C.ar     1 ZINC000001690324   -0.1400
15     C15     2.3366   -3.3742   -6.6786 C.ar     1 ZINC000001690324   -0.0600
16     C16     1.3134   -2.2305   -2.1670 C.ar     1 ZINC000001690324    0.0600
17     C17     0.8089   -1.4346   -1.1795 C.ar     1 ZINC000001690324   -0.7000
18     S18     0.0301   -2.1650    0.2221 S.o2     1 ZINC000001690324    2.7000
19     O19     1.0708   -2.3802    1.2155 O.co2    1 ZINC000001690324   -1.0600
20     O20    -0.9767   -1.2211    0.6819 O.co2    1 ZINC000001690324   -1.0400
21     O21    -0.5599   -3.4154   -0.2300 O.co2    1 ZINC000001690324   -1.0600
22     H22     1.5634    2.4143   -0.5269 H        1 ZINC000001690324    0.0500
23     H23    -0.0042    2.4528   -1.3693 H        1 ZINC000001690324    0.0600
24     H24     0.0614    2.6522    0.3983 H        1 ZINC000001690324    0.1100
25     H25     1.5769    1.6127   -2.4484 H        1 ZINC000001690324    0.1400
26     H26     3.5786    0.4499   -4.3521 H        1 ZINC000001690324    0.3900
27     H27     0.0621   -1.5033   -4.9897 H        1 ZINC000001690324    0.1300
28     H28    -1.1272   -1.7438   -7.1289 H        1 ZINC000001690324    0.1300
29     H29    -0.1125   -3.0227   -8.9692 H        1 ZINC000001690324    0.1200
30     H30     2.0965   -4.0670   -8.6830 H        1 ZINC000001690324    0.1300
31     H31     3.3064   -3.8330   -6.5547 H        1 ZINC000001690324    0.1300
32     H32     1.2377   -3.3048   -2.0853 H        1 ZINC000001690324    0.1500
@<TRIPOS>BOND
1     1     2     1
2     1     22    1
3     1     23    1
4     1     24    1
5     2     3     1
6     3     17    ar
7     3     4     ar
8     4     5     ar
9     4     25    1
10    5     6     1
11    5     7     ar
12    6     26    1
13    7     8     1
14    7     16    ar
15    8     9     2
16    8     10    1
17    10    15    ar
18    10    11    ar
19    11    12    ar
20    11    27    1
21    12    13    ar
22    12    28    1
23    13    14    ar
24    13    29    1
25    14    15    ar
26    14    30    1
27    15    31    1
28    16    17    ar
29    16    32    1
30    17    18    1
31    18    19    ar
32    18    20    ar
33    18    21    ar
@<TRIPOS>SUBSTRUCTURE
1   ZINC000001690324 1     RESIDUE    1   A     ZIN   1
