@<TRIPOS>MOLECULE
ZINC000000002101
19   19    0    0    0
SMALL
USER_CHARGES
NO_NAME
@<TRIPOS>ATOM
1 N1       -0.0169     1.3925     0.0097 N.pl3  1 <0>      -0.8600
2 C2        0.0021    -0.0041     0.0020 C.ar   1 <0>       0.2700
3 C3       -1.1905    -0.7164     0.0038 C.ar   1 <0>      -0.2200
4 C4       -1.1681    -2.0973    -0.0043 C.ar   1 <0>       0.0300
5 C5        0.0396    -2.7708    -0.0137 C.ar   1 <0>      -0.7300
6 S6        0.0635    -4.5326    -0.0240 S.o2   1 <0>       2.7100
7 N7        0.0629    -5.0136    -1.6086 N.am   1 <0>      -1.2500
8 O8        1.3210    -4.9200     0.5125 O.2    1 <0>      -0.9700
9 O9       -1.1782    -4.9539     0.5236 O.2    1 <0>      -0.9700
10 C10       1.2286    -2.0647    -0.0155 C.ar   1 <0>       0.0300
11 C11       1.2135    -0.6838    -0.0132 C.ar   1 <0>      -0.2200
12 H12       0.8165     1.8889     0.0044 H      1 <0>       0.4000
13 H13      -0.8634     1.8661     0.0163 H      1 <0>       0.4000
14 H14      -2.1340    -0.1911     0.0118 H      1 <0>       0.1300
15 H15      -2.0949    -2.6517    -0.0030 H      1 <0>       0.1400
16 H16       0.0508    -4.3507    -2.3167 H      1 <0>       0.4200
17 H17       0.0748    -5.9582    -1.8287 H      1 <0>       0.4200
18 H18       2.1701    -2.5938    -0.0228 H      1 <0>       0.1400
19 H19       2.1424    -0.1329    -0.0149 H      1 <0>       0.1300
@<TRIPOS>BOND
1    1    2 1
2    1   12 1
3    1   13 1
4    2   11 ar
5    2    3 ar
6    3    4 ar
7    3   14 1
8    4    5 ar
9    4   15 1
10    5    6 1
11    5   10 ar
12    6    7 am
13    6    8 2
14    6    9 2
15    7   16 1
16    7   17 1
17   10   11 ar
18   10   18 1
19   11   19 1
