@<TRIPOS>MOLECULE
ZINC000000001795
13    13    1     0     0
SMALL
USER_CHARGES
@<TRIPOS>ATOM
1      O1      0.0021   -0.0041    0.0020 O.co2    1 ZINC000000001795   -0.6800
2      C2     -0.0145    1.2187    0.0087 C.2      1 ZINC000000001795    0.5200
3      O3      1.0361    1.8445    0.0021 O.co2    1 ZINC000000001795   -0.6800
4      C4     -1.3021    1.9389    0.0188 C.ar     1 ZINC000000001795   -0.1800
5      C5     -1.3351    3.3398    0.0207 C.ar     1 ZINC000000001795   -0.0500
6      C6     -2.5687    3.9663    0.0303 C.ar     1 ZINC000000001795   -0.1900
7      C7     -3.7188    3.1976    0.0376 C.ar     1 ZINC000000001795    0.0800
8      N8     -3.6579    1.8793    0.0359 N.ar     1 ZINC000000001795   -0.5000
9      C9     -2.5094    1.2361    0.0207 C.ar     1 ZINC000000001795    0.1200
10     H10    -0.4214    3.9156    0.0153 H        1 ZINC000000001795    0.1400
11     H11    -2.6331    5.0444    0.0324 H        1 ZINC000000001795    0.1300
12     H12    -4.6828    3.6845    0.0450 H        1 ZINC000000001795    0.1500
13     H13    -2.5004    0.1562    0.0199 H        1 ZINC000000001795    0.1600
@<TRIPOS>BOND
1     1     2     ar
2     2     3     ar
3     2     4     1
4     4     9     ar
5     4     5     ar
6     5     6     ar
7     5     10    1
8     6     7     ar
9     6     11    1
10    7     8     ar
11    7     12    1
12    8     9     ar
13    9     13    1
@<TRIPOS>SUBSTRUCTURE
1   ZINC000000001795 1     RESIDUE    1   A     ZIN   1
