@<TRIPOS>MOLECULE
ZINC000001532805
14   13    0    0    0
SMALL
USER_CHARGES
NO_NAME
@<TRIPOS>ATOM
1 O1        0.0021    -0.0041     0.0020 O.co2  1 <0>      -0.7000
2 C2       -0.0145     1.2150     0.0087 C.2    1 <0>       0.4900
3 O3        1.0330     1.8389     0.0021 O.co2  1 <0>      -0.7100
4 C4       -1.3296     1.9507     0.0190 C.3    1 <0>      -0.1800
5 C5       -2.4790     0.9408     0.0189 C.3    1 <0>      -0.1000
6 C6       -3.8142     1.6877     0.0293 C.3    1 <0>       0.0700
7 O7       -4.8877     0.7444     0.0293 O.3    1 <0>      -0.5800
8 H8       -1.3917     2.5717     0.9126 H      1 <0>       0.0600
9 H9       -1.4001     2.5813    -0.8673 H      1 <0>       0.0600
10 H10      -2.4169     0.3198    -0.8748 H      1 <0>       0.0700
11 H11      -2.4085     0.3101     0.9052 H      1 <0>       0.0700
12 H12      -3.8762     2.3086     0.9230 H      1 <0>       0.0400
13 H13      -3.8847     2.3183    -0.8569 H      1 <0>       0.0400
14 H14      -5.7662     1.1484     0.0356 H      1 <0>       0.3700
@<TRIPOS>BOND
1    1    2 ar
2    2    3 ar
3    2    4 1
4    4    5 1
5    4    8 1
6    4    9 1
7    5    6 1
8    5   10 1
9    5   11 1
10    6    7 1
11    6   12 1
12    6   13 1
13    7   14 1
