@<TRIPOS>MOLECULE
ZINC000014961096
47    49    1     0     0
SMALL
USER_CHARGES
@<TRIPOS>ATOM
1      C1      0.0083    1.1224   -0.8592 C.3      1 ZINC000014961096    0.0800
2      N2      0.0477   -0.2849   -0.4540 N.am     1 ZINC000014961096   -0.5500
3      C3      0.7621   -1.1687   -1.1782 C.2      1 ZINC000014961096    0.5500
4      O4      1.3737   -0.7999   -2.1663 O.2      1 ZINC000014961096   -0.5100
5      C5      0.7981   -2.5165   -0.7878 C.2      1 ZINC000014961096   -0.3100
6      C6      0.1040   -2.9045    0.3244 C.2      1 ZINC000014961096    0.4500
7      N7      0.1219   -4.2147    0.7290 N.pl3    1 ZINC000014961096   -0.6300
8      C8      1.3955   -4.9238    0.9137 C.3      1 ZINC000014961096    0.1200
9      C9      1.3638   -6.2163    0.0921 C.3      1 ZINC000014961096   -0.1300
10     C10     0.1283   -7.0321    0.4794 C.3      1 ZINC000014961096   -0.1400
11     C11    -1.1353   -6.2283    0.1641 C.3      1 ZINC000014961096    0.0100
12     H12    -1.1553   -5.9837   -0.8979 H        1 ZINC000014961096    0.1500
13     N13    -2.3212   -7.0248    0.5061 N.4      1 ZINC000014961096   -0.6300
14     H14    -2.3029   -7.2502    1.4895 H        1 ZINC000014961096    0.4300
15     H15    -3.1540   -6.4945    0.2981 H        1 ZINC000014961096    0.4400
16     H16    -2.3214   -7.8769   -0.0342 H        1 ZINC000014961096    0.4400
17     C17    -1.1318   -4.9342    0.9919 C.3      1 ZINC000014961096    0.1000
18     N18    -0.6112   -1.9700    1.0332 N.am     1 ZINC000014961096   -0.5400
19     C19    -1.3582   -2.3759    2.2263 C.3      1 ZINC000014961096    0.1400
20     C20    -0.4573   -2.3025    3.4321 C.ar     1 ZINC000014961096   -0.0900
21     C21     0.2883   -3.4010    3.8059 C.ar     1 ZINC000014961096   -0.1100
22     C22     1.1160   -3.3353    4.9129 C.ar     1 ZINC000014961096   -0.1000
23     C23     1.2016   -2.1692    5.6524 C.ar     1 ZINC000014961096   -0.1000
24     C24     0.4614   -1.0628    5.2897 C.ar     1 ZINC000014961096   -0.0700
25     C25    -0.3710   -1.1202    4.1703 C.ar     1 ZINC000014961096    0.0100
26     C26    -1.1421    0.0243    3.7881 C.1      1 ZINC000014961096    0.2200
27     N27    -1.7539    0.9322    3.4848 N.1      1 ZINC000014961096   -0.3500
28     C28    -0.6251   -0.6827    0.6410 C.2      1 ZINC000014961096    0.6900
29     O29    -1.2635    0.1311    1.2801 O.2      1 ZINC000014961096   -0.5100
30     H30     0.8269    1.6610   -0.3818 H        1 ZINC000014961096    0.0800
31     H31     0.1105    1.1918   -1.9422 H        1 ZINC000014961096    0.1000
32     H32    -0.9418    1.5616   -0.5550 H        1 ZINC000014961096    0.0900
33     H33     1.3658   -3.2369   -1.3580 H        1 ZINC000014961096    0.1700
34     H34     2.2171   -4.2940    0.5726 H        1 ZINC000014961096    0.1000
35     H35     1.5301   -5.1643    1.9683 H        1 ZINC000014961096    0.0800
36     H36     1.3203   -5.9718   -0.9692 H        1 ZINC000014961096    0.0900
37     H37     2.2626   -6.7986    0.2952 H        1 ZINC000014961096    0.1000
38     H38     0.1164   -7.9639   -0.0861 H        1 ZINC000014961096    0.1000
39     H39     0.1600   -7.2552    1.5459 H        1 ZINC000014961096    0.0900
40     H40    -1.2040   -5.1782    2.0518 H        1 ZINC000014961096    0.0900
41     H41    -1.9773   -4.3113    0.6999 H        1 ZINC000014961096    0.1100
42     H42    -2.2086   -1.7088    2.3670 H        1 ZINC000014961096    0.1100
43     H43    -1.7151   -3.3982    2.1011 H        1 ZINC000014961096    0.1000
44     H44     0.2256   -4.3147    3.2335 H        1 ZINC000014961096    0.1300
45     H45     1.6976   -4.1985    5.2012 H        1 ZINC000014961096    0.1300
46     H46     1.8490   -2.1250    6.5157 H        1 ZINC000014961096    0.1400
47     H47     0.5288   -0.1532    5.8681 H        1 ZINC000014961096    0.1400
@<TRIPOS>BOND
1     1     2     1
2     1     30    1
3     1     31    1
4     1     32    1
5     2     28    am
6     2     3     am
7     3     4     2
8     3     5     1
9     5     6     2
10    5     33    1
11    6     7     1
12    6     18    1
13    7     17    1
14    7     8     1
15    8     9     1
16    8     34    1
17    8     35    1
18    9     10    1
19    9     36    1
20    9     37    1
21    10    11    1
22    10    38    1
23    10    39    1
24    11    12    1
25    11    13    1
26    11    17    1
27    13    14    1
28    13    15    1
29    13    16    1
30    17    40    1
31    17    41    1
32    18    19    1
33    18    28    am
34    19    20    1
35    19    42    1
36    19    43    1
37    20    25    ar
38    20    21    ar
39    21    22    ar
40    21    44    1
41    22    23    ar
42    22    45    1
43    23    24    ar
44    23    46    1
45    24    25    ar
46    24    47    1
47    25    26    1
48    26    27    3
49    28    29    2
@<TRIPOS>SUBSTRUCTURE
1   ZINC000014961096 1     RESIDUE    1   A     ZIN   1
