@<TRIPOS>MOLECULE
ZINC000016159083
65    67    1     0     0
SMALL
USER_CHARGES
@<TRIPOS>ATOM
1      C1    -14.9970   -8.5057   -5.2923 C.3      1 ZINC000016159083   -0.1500
2      C2    -13.7770   -8.4256   -6.2121 C.3      1 ZINC000016159083   -0.1000
3      C3    -14.2399   -8.3634   -7.6691 C.3      1 ZINC000016159083   -0.1500
4      C4    -12.9692   -7.1694   -5.8796 C.3      1 ZINC000016159083    0.0600
5      O5    -12.4391   -7.2802   -4.5572 O.3      1 ZINC000016159083   -0.3100
6      C6    -11.6910   -6.2404   -4.1033 C.ar     1 ZINC000016159083    0.1400
7      C7    -11.4764   -5.1337   -4.9119 C.ar     1 ZINC000016159083   -0.2100
8      C8    -10.7159   -4.0778   -4.4480 C.ar     1 ZINC000016159083   -0.0600
9      C9    -10.1684   -4.1236   -3.1791 C.ar     1 ZINC000016159083   -0.1500
10     C10    -9.3389   -2.9705   -2.6758 C.3      1 ZINC000016159083    0.1800
11     N11   -10.2068   -2.0025   -2.0008 N.am     1 ZINC000016159083   -0.7500
12     C12    -9.6801   -0.8827   -1.4669 C.2      1 ZINC000016159083    0.7100
13     O13    -8.4753   -0.7189   -1.4643 O.2      1 ZINC000016159083   -0.5700
14     N14   -10.4889    0.0557   -0.9360 N.am     1 ZINC000016159083   -0.6200
15     C15   -11.9297   -0.1901   -0.8368 C.3      1 ZINC000016159083    0.1500
16     C16   -12.2379   -0.8434    0.4858 C.ar     1 ZINC000016159083   -0.1200
17     C17   -12.2238   -2.2214    0.5954 C.ar     1 ZINC000016159083   -0.0700
18     C18   -12.5064   -2.8216    1.8078 C.ar     1 ZINC000016159083   -0.1500
19     C19   -12.8032   -2.0421    2.9130 C.ar     1 ZINC000016159083    0.1000
20     F20   -13.0791   -2.6278    4.0988 F        1 ZINC000016159083   -0.1400
21     C21   -12.8166   -0.6621    2.8021 C.ar     1 ZINC000016159083   -0.1500
22     C22   -12.5290   -0.0640    1.5899 C.ar     1 ZINC000016159083   -0.0700
23     C23    -9.9271    1.3215   -0.4581 C.3      1 ZINC000016159083    0.1700
24     C24    -8.9396    1.0461    0.6792 C.3      1 ZINC000016159083   -0.1300
25     C25    -8.3109    2.3655    1.1331 C.3      1 ZINC000016159083    0.0600
26     N26    -7.6184    2.9942    0.0010 N.3      1 ZINC000016159083   -0.5400
27     C27    -6.8865    4.1929    0.4315 C.3      1 ZINC000016159083    0.0200
28     C28    -8.5551    3.3112   -1.0847 C.3      1 ZINC000016159083    0.0600
29     C29    -9.1910    2.0200   -1.6048 C.3      1 ZINC000016159083   -0.1300
30     C30   -10.3812   -5.2252   -2.3712 C.ar     1 ZINC000016159083   -0.0600
31     C31   -11.1453   -6.2814   -2.8284 C.ar     1 ZINC000016159083   -0.1500
32     H32   -15.5725   -9.4006   -5.5292 H        1 ZINC000016159083    0.0600
33     H33   -14.6672   -8.5500   -4.2544 H        1 ZINC000016159083    0.0600
34     H34   -15.6205   -7.6236   -5.4381 H        1 ZINC000016159083    0.0500
35     H35   -13.1535   -9.3077   -6.0663 H        1 ZINC000016159083    0.0800
36     H36   -14.8634   -7.4813   -7.8149 H        1 ZINC000016159083    0.0600
37     H37   -13.3707   -8.3063   -8.3243 H        1 ZINC000016159083    0.0600
38     H38   -14.8154   -9.2583   -7.9060 H        1 ZINC000016159083    0.0700
39     H39   -12.1506   -7.0648   -6.5916 H        1 ZINC000016159083    0.0600
40     H40   -13.6167   -6.2947   -5.9393 H        1 ZINC000016159083    0.0600
41     H41   -11.9032   -5.0978   -5.9033 H        1 ZINC000016159083    0.1300
42     H42   -10.5486   -3.2161   -5.0771 H        1 ZINC000016159083    0.1300
43     H43    -8.5915   -3.3399   -1.9736 H        1 ZINC000016159083    0.0800
44     H44    -8.8404   -2.4875   -3.5162 H        1 ZINC000016159083    0.0700
45     H45   -11.1607   -2.1675   -1.9380 H        1 ZINC000016159083    0.3900
46     H46   -12.4655    0.7564   -0.9082 H        1 ZINC000016159083    0.0900
47     H47   -12.2429   -0.8470   -1.6483 H        1 ZINC000016159083    0.0800
48     H48   -11.9923   -2.8291   -0.2668 H        1 ZINC000016159083    0.1300
49     H49   -12.4960   -3.8981    1.8930 H        1 ZINC000016159083    0.1400
50     H50   -13.0483   -0.0531    3.6634 H        1 ZINC000016159083    0.1400
51     H51   -12.5390    1.0125    1.5032 H        1 ZINC000016159083    0.1300
52     H52   -10.7307    1.9632   -0.0966 H        1 ZINC000016159083    0.0800
53     H53    -9.4667    0.5874    1.5158 H        1 ZINC000016159083    0.0600
54     H54    -8.1581    0.3726    0.3274 H        1 ZINC000016159083    0.1000
55     H55    -9.0915    3.0333    1.4976 H        1 ZINC000016159083    0.0300
56     H56    -7.5966    2.1712    1.9332 H        1 ZINC000016159083    0.0800
57     H57    -6.1474    3.9167    1.1836 H        1 ZINC000016159083    0.0700
58     H58    -6.3829    4.6387   -0.4262 H        1 ZINC000016159083    0.0700
59     H59    -7.5860    4.9126    0.8567 H        1 ZINC000016159083    0.0200
60     H60    -9.3345    3.9746   -0.7098 H        1 ZINC000016159083    0.0300
61     H61    -8.0181    3.8037   -1.8954 H        1 ZINC000016159083    0.0800
62     H62    -8.4135    1.3619   -1.9925 H        1 ZINC000016159083    0.1000
63     H63    -9.8978    2.2571   -2.4000 H        1 ZINC000016159083    0.0600
64     H64    -9.9528   -5.2584   -1.3803 H        1 ZINC000016159083    0.1300
65     H65   -11.3112   -7.1417   -2.1970 H        1 ZINC000016159083    0.1300
@<TRIPOS>BOND
1     1     2     1
2     1     32    1
3     1     33    1
4     1     34    1
5     2     3     1
6     2     4     1
7     2     35    1
8     3     36    1
9     3     37    1
10    3     38    1
11    4     5     1
12    4     39    1
13    4     40    1
14    5     6     1
15    6     31    ar
16    6     7     ar
17    7     8     ar
18    7     41    1
19    8     9     ar
20    8     42    1
21    9     10    1
22    9     30    ar
23    10    11    1
24    10    43    1
25    10    44    1
26    11    12    am
27    11    45    1
28    12    13    2
29    12    14    am
30    14    15    1
31    14    23    1
32    15    16    1
33    15    46    1
34    15    47    1
35    16    22    ar
36    16    17    ar
37    17    18    ar
38    17    48    1
39    18    19    ar
40    18    49    1
41    19    20    1
42    19    21    ar
43    21    22    ar
44    21    50    1
45    22    51    1
46    23    29    1
47    23    24    1
48    23    52    1
49    24    25    1
50    24    53    1
51    24    54    1
52    25    26    1
53    25    55    1
54    25    56    1
55    26    27    1
56    26    28    1
57    27    57    1
58    27    58    1
59    27    59    1
60    28    29    1
61    28    60    1
62    28    61    1
63    29    62    1
64    29    63    1
65    30    31    ar
66    30    64    1
67    31    65    1
@<TRIPOS>SUBSTRUCTURE
1   ZINC000016159083 1     RESIDUE    1   A     ZIN   1
