@<TRIPOS>MOLECULE
ZINC000000602632
43    45    1     0     0
SMALL
USER_CHARGES
@<TRIPOS>ATOM
1      C1     -0.2525    0.7458    0.1144 C.3      1 ZINC000000602632   -0.1200
2      C2     -0.0788   -0.7399    0.2977 C.ar     1 ZINC000000602632   -0.0700
3      C3     -0.0624   -1.5710   -0.8005 C.ar     1 ZINC000000602632   -0.0700
4      C4      0.0993   -2.9486   -0.6294 C.ar     1 ZINC000000602632   -0.0100
5      C5      0.1174   -3.8163   -1.7684 C.1      1 ZINC000000602632    0.2500
6      N6      0.1317   -4.5047   -2.6720 N.1      1 ZINC000000602632   -0.4100
7      C7      0.2437   -3.4769    0.6563 C.ar     1 ZINC000000602632   -0.0700
8      C8      0.2261   -2.6387    1.7491 C.ar     1 ZINC000000602632   -0.0700
9      C9      0.3818   -3.2072    3.1360 C.3      1 ZINC000000602632   -0.1200
10     C10     0.0705   -1.2688    1.5741 C.ar     1 ZINC000000602632    0.1100
11     O11     0.0542   -0.4460    2.6539 O.3      1 ZINC000000602632   -0.2200
12     C12     1.2344    0.0648    3.0827 C.ar     1 ZINC000000602632    0.4600
13     N13     2.3662   -0.2343    2.4524 N.ar     1 ZINC000000602632   -0.6200
14     C14     3.5238    0.2605    2.8640 C.ar     1 ZINC000000602632    0.6400
15     N15     4.6820   -0.0746    2.1807 N.pl3    1 ZINC000000602632   -0.6300
16     C16     5.9213    0.3397    2.6650 C.ar     1 ZINC000000602632    0.2000
17     C17     6.1343    0.4338    4.0370 C.ar     1 ZINC000000602632   -0.1200
18     C18     7.3575    0.8422    4.5189 C.ar     1 ZINC000000602632   -0.0500
19     C19     8.3862    1.1627    3.6282 C.ar     1 ZINC000000602632   -0.0500
20     C20     9.6600    1.5875    4.1258 C.1      1 ZINC000000602632    0.2500
21     N21    10.6705    1.9244    4.5206 N.1      1 ZINC000000602632   -0.4200
22     C22     8.1687    1.0670    2.2505 C.ar     1 ZINC000000602632   -0.0500
23     C23     6.9448    0.6528    1.7757 C.ar     1 ZINC000000602632   -0.1500
24     N24     3.6034    1.0674    3.9110 N.ar     1 ZINC000000602632   -0.6100
25     C25     2.5121    1.4103    4.5907 C.ar     1 ZINC000000602632    0.5300
26     N26     2.6030    2.2556    5.6860 N.pl3    1 ZINC000000602632   -0.8200
27     C27     1.2761    0.9126    4.1834 C.ar     1 ZINC000000602632   -0.3300
28     Br28   -0.3054    1.3689    5.1142 Br       1 ZINC000000602632   -0.0100
29     H29     0.7247    1.2141   -0.0033 H        1 ZINC000000602632    0.0800
30     H30    -0.8551    0.9343   -0.7741 H        1 ZINC000000602632    0.0800
31     H31    -0.7528    1.1636    0.9880 H        1 ZINC000000602632    0.0800
32     H32    -0.1747   -1.1587   -1.7924 H        1 ZINC000000602632    0.1400
33     H33     0.3685   -4.5409    0.7929 H        1 ZINC000000602632    0.1400
34     H34     1.4386   -3.2332    3.4016 H        1 ZINC000000602632    0.0800
35     H35    -0.1564   -2.5812    3.8478 H        1 ZINC000000602632    0.0800
36     H36    -0.0244   -4.2184    3.1619 H        1 ZINC000000602632    0.0800
37     H37     4.6300   -0.5975    1.3654 H        1 ZINC000000602632    0.4300
38     H38     5.3390    0.1864    4.7245 H        1 ZINC000000602632    0.1500
39     H39     7.5220    0.9154    5.5838 H        1 ZINC000000602632    0.1400
40     H40     8.9613    1.3139    1.5596 H        1 ZINC000000602632    0.1400
41     H41     6.7760    0.5787    0.7115 H        1 ZINC000000602632    0.1400
42     H42     3.4664    2.6012    5.9615 H        1 ZINC000000602632    0.4200
43     H43     1.8032    2.5013    6.1767 H        1 ZINC000000602632    0.4200
@<TRIPOS>BOND
1     1     2     1
2     1     29    1
3     1     30    1
4     1     31    1
5     2     10    ar
6     2     3     ar
7     3     4     ar
8     3     32    1
9     4     5     1
10    4     7     ar
11    5     6     3
12    7     8     ar
13    7     33    1
14    8     9     1
15    8     10    ar
16    9     34    1
17    9     35    1
18    9     36    1
19    10    11    1
20    11    12    1
21    12    27    ar
22    12    13    ar
23    13    14    ar
24    14    15    1
25    14    24    ar
26    15    16    1
27    15    37    1
28    16    23    ar
29    16    17    ar
30    17    18    ar
31    17    38    1
32    18    19    ar
33    18    39    1
34    19    20    1
35    19    22    ar
36    20    21    3
37    22    23    ar
38    22    40    1
39    23    41    1
40    24    25    ar
41    25    26    1
42    25    27    ar
43    26    42    1
44    26    43    1
45    27    28    1
@<TRIPOS>SUBSTRUCTURE
1   ZINC000000602632 1     RESIDUE    1   A     ZIN   1
