@<TRIPOS>MOLECULE
ZINC000003964325
57   59    0    0    0
SMALL
USER_CHARGES
NO_NAME
@<TRIPOS>ATOM
1 C1        0.1886     0.9380     0.0964 C.3    1 <0>      -0.1900
2 C2        0.0799    -0.5806    -0.0559 C.3    1 <0>      -0.0200
3 N3        0.5884    -0.9780    -1.3755 N.4    1 <0>      -0.3800
4 H4        0.1053    -0.4580    -2.0927 H      1 <0>       0.4300
5 C5        2.0279    -0.6951    -1.4511 C.3    1 <0>      -0.0100
6 C6        2.5290    -0.9756    -2.8692 C.3    1 <0>      -0.1900
7 C7        0.3607    -2.4154    -1.5754 C.3    1 <0>      -0.0300
8 C8       -1.1434    -2.6920    -1.6211 C.3    1 <0>       0.0900
9 N9       -1.3705    -4.1255    -1.8204 N.am   1 <0>      -0.7300
10 C10      -2.6280    -4.6049    -1.8930 C.2    1 <0>       0.6100
11 O11      -3.5742    -3.8475    -1.7929 O.2    1 <0>      -0.5200
12 C12      -2.8565    -6.0474    -2.0936 C.2    1 <0>      -0.2400
13 C13      -2.9951    -7.0019    -1.1022 C.2    1 <0>       0.1200
14 C14      -2.9378    -6.7422     0.3811 C.3    1 <0>      -0.1000
15 N15      -3.1898    -8.1988    -1.6805 N.pl3  1 <0>      -0.4900
16 C16      -3.1818    -8.0480    -3.0518 C.2    1 <0>      -0.0100
17 C17      -3.3547    -9.0789    -4.0011 C.2    1 <0>       0.0700
18 C18      -4.1931   -10.1399    -3.7230 C.2    1 <0>      -0.1900
19 C19      -5.0952   -10.2882    -2.5729 C.2    1 <0>       0.5600
20 O20      -5.2448    -9.4821    -1.6719 O.2    1 <0>      -0.5100
21 N21      -5.7270   -11.4685    -2.6893 N.am   1 <0>      -0.6500
22 C22      -5.3271   -12.1462    -3.8360 C.ar   1 <0>       0.1300
23 C23      -5.7009   -13.3781    -4.3604 C.ar   1 <0>      -0.1000
24 C24      -5.1402   -13.8291    -5.5384 C.ar   1 <0>      -0.1100
25 C25      -4.2006   -13.0633    -6.2117 C.ar   1 <0>       0.0800
26 F26      -3.6597   -13.5174    -7.3634 F      1 <0>      -0.1300
27 C27      -3.8175   -11.8353    -5.7055 C.ar   1 <0>      -0.1000
28 C28      -4.3822   -11.3710    -4.5222 C.ar   1 <0>      -0.0700
29 C29      -2.9807    -6.7111    -3.3329 C.2    1 <0>      -0.0600
30 C30      -2.9005    -6.0828    -4.7004 C.3    1 <0>      -0.0900
31 H31       1.2392     1.2282     0.1027 H      1 <0>       0.0800
32 H32      -0.3176     1.4239    -0.7377 H      1 <0>       0.0800
33 H33      -0.2784     1.2436     1.0326 H      1 <0>       0.1100
34 H34       0.6688    -1.0668     0.7219 H      1 <0>       0.1300
35 H35      -0.9636    -0.8813     0.0371 H      1 <0>       0.1300
36 H36       2.2061     0.3513    -1.2032 H      1 <0>       0.1400
37 H37       2.5609    -1.3317    -0.7449 H      1 <0>       0.1300
38 H38       2.4416    -2.0412    -3.0813 H      1 <0>       0.0800
39 H39       1.9295    -0.4125    -3.5845 H      1 <0>       0.0800
40 H40       3.5729    -0.6731    -2.9522 H      1 <0>       0.1100
41 H41       0.8164    -2.7283    -2.5149 H      1 <0>       0.1400
42 H42       0.8077    -2.9721    -0.7517 H      1 <0>       0.1400
43 H43      -1.5990    -2.3792    -0.6816 H      1 <0>       0.0900
44 H44      -1.5903    -2.1353    -2.4448 H      1 <0>       0.0900
45 H45      -0.6157    -4.7296    -1.9003 H      1 <0>       0.4100
46 H46      -3.9391    -6.5203     0.7501 H      1 <0>       0.0900
47 H47      -2.5504    -7.6249     0.8898 H      1 <0>       0.0800
48 H48      -2.2823    -5.8934     0.5763 H      1 <0>       0.0800
49 H49      -3.3158    -9.0368    -1.2084 H      1 <0>       0.4300
50 H50      -2.8311    -9.0373    -4.9447 H      1 <0>       0.1600
51 H51      -6.3787   -11.8050    -2.0545 H      1 <0>       0.4200
52 H52      -6.4315   -13.9838    -3.8449 H      1 <0>       0.1400
53 H53      -5.4358   -14.7875    -5.9391 H      1 <0>       0.1500
54 H54      -3.0860   -11.2372    -6.2287 H      1 <0>       0.1400
55 H55      -3.8970    -5.7765    -5.0185 H      1 <0>       0.0800
56 H56      -2.2473    -5.2110    -4.6619 H      1 <0>       0.0600
57 H57      -2.4991    -6.8065    -5.4097 H      1 <0>       0.0700
@<TRIPOS>BOND
1    1    2 1
2    1   31 1
3    1   32 1
4    1   33 1
5    2    3 1
6    2   34 1
7    2   35 1
8    3    4 1
9    3    5 1
10    3    7 1
11    5    6 1
12    5   36 1
13    5   37 1
14    6   38 1
15    6   39 1
16    6   40 1
17    7    8 1
18    7   41 1
19    7   42 1
20    8    9 1
21    8   43 1
22    8   44 1
23    9   10 am
24    9   45 1
25   10   11 2
26   10   12 1
27   12   29 1
28   12   13 2
29   13   14 1
30   13   15 1
31   14   46 1
32   14   47 1
33   14   48 1
34   15   16 1
35   15   49 1
36   16   17 1
37   16   29 2
38   17   18 2
39   17   50 1
40   18   28 1
41   18   19 1
42   19   20 2
43   19   21 am
44   21   22 1
45   21   51 1
46   22   28 ar
47   22   23 ar
48   23   24 ar
49   23   52 1
50   24   25 ar
51   24   53 1
52   25   26 1
53   25   27 ar
54   27   28 ar
55   27   54 1
56   29   30 1
57   30   55 1
58   30   56 1
59   30   57 1
