@<TRIPOS>MOLECULE
ZINC000000113410
39    40    1     0     0
SMALL
USER_CHARGES
@<TRIPOS>ATOM
1      C1     -0.5393    2.0946    0.1312 C.3      1 ZINC000000113410   -0.0500
2      N2     -0.2130    0.6637    0.0675 N.4      1 ZINC000000113410   -0.3900
3      H3      0.3199    0.4772   -0.7687 H        1 ZINC000000113410    0.4300
4      C4      0.5789    0.2890    1.2466 C.3      1 ZINC000000113410   -0.0500
5      C5     -1.4547   -0.1210    0.0420 C.3      1 ZINC000000113410   -0.0100
6      C6     -2.2202    0.1775   -1.2487 C.3      1 ZINC000000113410   -0.1400
7      C7     -3.5134   -0.6397   -1.2753 C.3      1 ZINC000000113410    0.0200
8      H8     -3.2785   -1.6959   -1.1437 H        1 ZINC000000113410    0.1100
9      C9     -4.2065   -0.4403   -2.5985 C.ar     1 ZINC000000113410   -0.0900
10     C10    -4.4972    0.8368   -3.0406 C.ar     1 ZINC000000113410   -0.1000
11     C11    -5.1329    1.0203   -4.2541 C.ar     1 ZINC000000113410   -0.1100
12     C12    -5.4783   -0.0745   -5.0263 C.ar     1 ZINC000000113410   -0.0300
13     Cl13   -6.2763    0.1552   -6.5509 Cl       1 ZINC000000113410   -0.0600
14     C14    -5.1871   -1.3524   -4.5833 C.ar     1 ZINC000000113410   -0.1000
15     C15    -4.5463   -1.5344   -3.3722 C.ar     1 ZINC000000113410   -0.0900
16     C16    -4.4188   -0.1837   -0.1602 C.ar     1 ZINC000000113410    0.1200
17     C17    -4.4586    1.1541    0.1833 C.ar     1 ZINC000000113410   -0.1800
18     C18    -5.2954    1.5634    1.2105 C.ar     1 ZINC000000113410   -0.0700
19     C19    -6.0639    0.6072    1.8562 C.ar     1 ZINC000000113410   -0.1700
20     C20    -5.9711   -0.7130    1.4575 C.ar     1 ZINC000000113410    0.1100
21     N21    -5.1679   -1.0653    0.4729 N.ar     1 ZINC000000113410   -0.4700
22     H22     0.3820    2.6768    0.1501 H        1 ZINC000000113410    0.1300
23     H23    -1.1269    2.3726   -0.7437 H        1 ZINC000000113410    0.1200
24     H24    -1.1150    2.2961    1.0345 H        1 ZINC000000113410    0.1200
25     H25     0.0031    0.4905    2.1500 H        1 ZINC000000113410    0.1200
26     H26     0.8209   -0.7728    1.1993 H        1 ZINC000000113410    0.1200
27     H27     1.5002    0.8712    1.2656 H        1 ZINC000000113410    0.1300
28     H28    -1.2141   -1.1833    0.0843 H        1 ZINC000000113410    0.1400
29     H29    -2.0712    0.1464    0.9002 H        1 ZINC000000113410    0.1300
30     H30    -2.4608    1.2398   -1.2910 H        1 ZINC000000113410    0.0900
31     H31    -1.6037   -0.0899   -2.1069 H        1 ZINC000000113410    0.1000
32     H32    -4.2279    1.6913   -2.4376 H        1 ZINC000000113410    0.1300
33     H33    -5.3603    2.0181   -4.5993 H        1 ZINC000000113410    0.1400
34     H34    -5.4567   -2.2074   -5.1855 H        1 ZINC000000113410    0.1400
35     H35    -4.3186   -2.5318   -3.0264 H        1 ZINC000000113410    0.1400
36     H36    -3.8455    1.8719   -0.3414 H        1 ZINC000000113410    0.1300
37     H37    -5.3470    2.6024    1.5009 H        1 ZINC000000113410    0.1400
38     H38    -6.7264    0.8902    2.6608 H        1 ZINC000000113410    0.1400
39     H39    -6.5662   -1.4641    1.9556 H        1 ZINC000000113410    0.1600
@<TRIPOS>BOND
1     1     2     1
2     1     22    1
3     1     23    1
4     1     24    1
5     2     3     1
6     2     4     1
7     2     5     1
8     4     25    1
9     4     26    1
10    4     27    1
11    5     6     1
12    5     28    1
13    5     29    1
14    6     7     1
15    6     30    1
16    6     31    1
17    7     8     1
18    7     9     1
19    7     16    1
20    9     15    ar
21    9     10    ar
22    10    11    ar
23    10    32    1
24    11    12    ar
25    11    33    1
26    12    13    1
27    12    14    ar
28    14    15    ar
29    14    34    1
30    15    35    1
31    16    21    ar
32    16    17    ar
33    17    18    ar
34    17    36    1
35    18    19    ar
36    18    37    1
37    19    20    ar
38    19    38    1
39    20    21    ar
40    20    39    1
@<TRIPOS>SUBSTRUCTURE
1   ZINC000000113410 1     RESIDUE    1   A     ZIN   1
