@<TRIPOS>MOLECULE
ZINC000001853205
64    66    1     0     0
SMALL
USER_CHARGES
@<TRIPOS>ATOM
1      C1     -0.2769    1.4885    0.6533 C.3      1 ZINC000001853205   -0.1500
2      C2     -0.4920   -0.0166    0.8243 C.3      1 ZINC000001853205    0.0600
3      O3     -1.6924   -0.4179    0.1128 O.3      1 ZINC000001853205   -0.3600
4      C4     -2.0249   -1.7174    0.1631 C.2      1 ZINC000001853205    0.4300
5      O5     -1.3358   -2.4938    0.7813 O.2      1 ZINC000001853205   -0.5100
6      C6     -3.2578   -2.2079   -0.5514 C.3      1 ZINC000001853205    0.1000
7      H7     -3.1665   -2.0006   -1.6176 H        1 ZINC000001853205    0.1300
8      C8     -4.4890   -1.4895    0.0043 C.3      1 ZINC000001853205   -0.0900
9      C9     -5.7236   -1.8942   -0.8038 C.3      1 ZINC000001853205   -0.0800
10     C10    -6.9364   -1.1866   -0.2565 C.ar     1 ZINC000001853205   -0.0700
11     C11    -7.6822   -1.7713    0.7498 C.ar     1 ZINC000001853205   -0.1200
12     C12    -8.7947   -1.1223    1.2519 C.ar     1 ZINC000001853205   -0.1200
13     C13    -9.1610    0.1117    0.7479 C.ar     1 ZINC000001853205   -0.1300
14     C14    -8.4146    0.6968   -0.2578 C.ar     1 ZINC000001853205   -0.1200
15     C15    -7.2997    0.0497   -0.7568 C.ar     1 ZINC000001853205   -0.1200
16     N16    -3.4004   -3.6553   -0.3444 N.3      1 ZINC000001853205   -0.6200
17     C17    -2.6085   -4.4080   -1.3264 C.3      1 ZINC000001853205    0.0500
18     H18    -2.6124   -3.8784   -2.2791 H        1 ZINC000001853205    0.1400
19     C19    -1.1696   -4.5444   -0.8245 C.3      1 ZINC000001853205   -0.1600
20     C20    -3.2082   -5.7782   -1.5111 C.2      1 ZINC000001853205    0.5700
21     O21    -3.8138   -6.3028   -0.6006 O.2      1 ZINC000001853205   -0.5600
22     N22    -3.0714   -6.4206   -2.6880 N.am     1 ZINC000001853205   -0.5800
23     C23    -2.3179   -5.9407   -3.8706 C.3      1 ZINC000001853205    0.0500
24     H24    -1.2542   -5.8909   -3.6381 H        1 ZINC000001853205    0.0700
25     C25    -2.8180   -4.5794   -4.2803 C.2      1 ZINC000001853205    0.4900
26     O26    -2.2095   -3.9324   -5.1155 O.co2    1 ZINC000001853205   -0.6900
27     O27    -3.8310   -4.1250   -3.7764 O.co2    1 ZINC000001853205   -0.6700
28     C28    -2.5627   -6.9650   -5.0125 C.3      1 ZINC000001853205   -0.1000
29     C29    -3.8778   -7.6232   -4.5669 C.3      1 ZINC000001853205   -0.1000
30     H30    -4.7326   -6.9863   -4.7945 H        1 ZINC000001853205    0.0900
31     C31    -4.0998   -9.0368   -5.0778 C.3      1 ZINC000001853205   -0.1000
32     C32    -5.3880   -9.5617   -4.4241 C.3      1 ZINC000001853205   -0.1200
33     C33    -5.2929   -9.5363   -2.9015 C.3      1 ZINC000001853205   -0.1100
34     C34    -4.9328   -8.1330   -2.3859 C.3      1 ZINC000001853205   -0.1200
35     C35    -3.6300   -7.7175   -3.0339 C.3      1 ZINC000001853205    0.1400
36     H36    -2.8784   -8.4862   -2.8538 H        1 ZINC000001853205    0.0500
37     H37     0.6242    1.7898    1.1875 H        1 ZINC000001853205    0.0800
38     H38    -0.1666    1.7218   -0.4057 H        1 ZINC000001853205    0.0700
39     H39    -1.1351    2.0263    1.0564 H        1 ZINC000001853205    0.0700
40     H40     0.3662   -0.5544    0.4213 H        1 ZINC000001853205    0.0700
41     H41    -0.6023   -0.2499    1.8833 H        1 ZINC000001853205    0.0700
42     H42    -4.6313   -1.7673    1.0487 H        1 ZINC000001853205    0.0700
43     H43    -4.3445   -0.4116   -0.0685 H        1 ZINC000001853205    0.0700
44     H44    -5.5813   -1.6165   -1.8482 H        1 ZINC000001853205    0.0800
45     H45    -5.8682   -2.9722   -0.7310 H        1 ZINC000001853205    0.0900
46     H46    -7.3960   -2.7354    1.1436 H        1 ZINC000001853205    0.1200
47     H47    -9.3778   -1.5794    2.0376 H        1 ZINC000001853205    0.1200
48     H48   -10.0305    0.6185    1.1397 H        1 ZINC000001853205    0.1200
49     H49    -8.7010    1.6608   -0.6517 H        1 ZINC000001853205    0.1200
50     H50    -6.7165    0.5069   -1.5426 H        1 ZINC000001853205    0.1200
51     H51    -3.1472   -3.9125    0.5978 H        1 ZINC000001853205    0.3500
52     H52    -1.1751   -4.9393    0.1915 H        1 ZINC000001853205    0.0600
53     H53    -0.6206   -5.2246   -1.4757 H        1 ZINC000001853205    0.0500
54     H54    -0.6881   -3.5666   -0.8317 H        1 ZINC000001853205    0.0600
55     H55    -2.6846   -6.4594   -5.9704 H        1 ZINC000001853205    0.0800
56     H56    -1.7564   -7.6969   -5.0593 H        1 ZINC000001853205    0.0600
57     H57    -4.2119   -9.0259   -6.1619 H        1 ZINC000001853205    0.0600
58     H58    -3.2574   -9.6691   -4.7974 H        1 ZINC000001853205    0.0600
59     H59    -6.2262   -8.9400   -4.7390 H        1 ZINC000001853205    0.0600
60     H60    -5.5626  -10.5861   -4.7530 H        1 ZINC000001853205    0.0600
61     H61    -6.2519   -9.8363   -2.4791 H        1 ZINC000001853205    0.0600
62     H62    -4.5266  -10.2418   -2.5802 H        1 ZINC000001853205    0.0600
63     H63    -5.7153   -7.4254   -2.6597 H        1 ZINC000001853205    0.0600
64     H64    -4.8145   -8.1553   -1.3025 H        1 ZINC000001853205    0.0800
@<TRIPOS>BOND
1     1     2     1
2     1     37    1
3     1     38    1
4     1     39    1
5     2     3     1
6     2     40    1
7     2     41    1
8     3     4     1
9     4     5     2
10    4     6     1
11    6     7     1
12    6     8     1
13    6     16    1
14    8     9     1
15    8     42    1
16    8     43    1
17    9     10    1
18    9     44    1
19    9     45    1
20    10    15    ar
21    10    11    ar
22    11    12    ar
23    11    46    1
24    12    13    ar
25    12    47    1
26    13    14    ar
27    13    48    1
28    14    15    ar
29    14    49    1
30    15    50    1
31    16    17    1
32    16    51    1
33    17    18    1
34    17    19    1
35    17    20    1
36    19    52    1
37    19    53    1
38    19    54    1
39    20    21    2
40    20    22    am
41    22    35    1
42    22    23    1
43    23    24    1
44    23    25    1
45    23    28    1
46    25    26    ar
47    25    27    ar
48    28    29    1
49    28    55    1
50    28    56    1
51    29    30    1
52    29    35    1
53    29    31    1
54    31    32    1
55    31    57    1
56    31    58    1
57    32    33    1
58    32    59    1
59    32    60    1
60    33    34    1
61    33    61    1
62    33    62    1
63    34    35    1
64    34    63    1
65    34    64    1
66    35    36    1
@<TRIPOS>SUBSTRUCTURE
1   ZINC000001853205 1     RESIDUE    1   A     ZIN   1
