@<TRIPOS>MOLECULE
ZINC000001530621
36    37    1     0     0
SMALL
USER_CHARGES
@<TRIPOS>ATOM
1      C1      2.0754    1.5402    1.0681 C.3      1 ZINC000001530621   -0.1900
2      C2      2.0880    0.0102    1.0684 C.3      1 ZINC000001530621   -0.0200
3      N3      0.7126   -0.4907    1.1921 N.4      1 ZINC000001530621   -0.5100
4      H4      0.3397   -0.2309    2.0930 H        1 ZINC000001530621    0.4300
5      H5      0.1416   -0.0894    0.4634 H        1 ZINC000001530621    0.4300
6      C6      0.7112   -1.9542    1.0652 C.3      1 ZINC000001530621    0.0800
7      H7      1.1910   -2.2283    0.1257 H        1 ZINC000001530621    0.1700
8      C8      1.5042   -2.5507    2.2173 C.3      1 ZINC000001530621   -0.1400
9      C9      1.5664   -4.0787    2.0855 C.3      1 ZINC000001530621   -0.5400
10     H10     2.2972   -4.4822    2.7865 H        1 ZINC000001530621    0.1700
11     C11     1.9498   -4.4631    0.6551 C.3      1 ZINC000001530621   -0.1600
12     S12    -0.0922   -4.7221    2.4795 S.o2     1 ZINC000001530621    2.4900
13     O13    -0.3098   -5.9787    1.8528 O.2      1 ZINC000001530621   -0.8900
14     O14    -0.4023   -4.5166    3.8510 O.2      1 ZINC000001530621   -0.9000
15     C15    -1.1456   -3.5963    1.6057 C.2      1 ZINC000001530621   -0.7100
16     C16    -0.7246   -2.4463    1.0477 C.2      1 ZINC000001530621   -0.0800
17     C17    -1.7524   -1.7318    0.4277 C.2      1 ZINC000001530621   -0.0400
18     C18    -2.9573   -2.2875    0.4727 C.2      1 ZINC000001530621   -0.7700
19     S19    -4.4199   -1.6016   -0.2309 S.o2     1 ZINC000001530621    2.7200
20     N20    -4.5286   -2.1671   -1.7835 N.am     1 ZINC000001530621   -1.2400
21     O21    -5.5115   -2.1689    0.4802 O.2      1 ZINC000001530621   -0.9400
22     O22    -4.1996   -0.2011   -0.3285 O.2      1 ZINC000001530621   -0.9400
23     S23    -2.8694   -3.8109    1.3439 S.3      1 ZINC000001530621    0.4800
24     H24     1.6401    1.9002    2.0003 H        1 ZINC000001530621    0.0800
25     H25     3.0960    1.9119    0.9763 H        1 ZINC000001530621    0.1100
26     H26     1.4813    1.8985    0.2274 H        1 ZINC000001530621    0.0800
27     H27     2.5233   -0.3498    0.1362 H        1 ZINC000001530621    0.1400
28     H28     2.6821   -0.3481    1.9091 H        1 ZINC000001530621    0.1400
29     H29     2.5162   -2.1459    2.2065 H        1 ZINC000001530621    0.1300
30     H30     1.0235   -2.2890    3.1599 H        1 ZINC000001530621    0.1100
31     H31     2.9259   -4.0415    0.4148 H        1 ZINC000001530621    0.0900
32     H32     1.9920   -5.5489    0.5695 H        1 ZINC000001530621    0.1000
33     H33     1.2048   -4.0726   -0.0381 H        1 ZINC000001530621    0.0700
34     H34    -1.5774   -0.7837   -0.0590 H        1 ZINC000001530621    0.1600
35     H35    -5.3984   -2.2899   -2.1952 H        1 ZINC000001530621    0.4300
36     H36    -3.7227   -2.3755   -2.2814 H        1 ZINC000001530621    0.4200
@<TRIPOS>BOND
1     1     2     1
2     1     24    1
3     1     25    1
4     1     26    1
5     2     3     1
6     2     27    1
7     2     28    1
8     3     4     1
9     3     5     1
10    3     6     1
11    6     7     1
12    6     16    1
13    6     8     1
14    8     9     1
15    8     29    1
16    8     30    1
17    9     10    1
18    9     11    1
19    9     12    1
20    11    31    1
21    11    32    1
22    11    33    1
23    12    13    2
24    12    14    2
25    12    15    1
26    15    23    1
27    15    16    2
28    16    17    1
29    17    18    2
30    17    34    1
31    18    19    1
32    18    23    1
33    19    20    am
34    19    21    2
35    19    22    2
36    20    35    1
37    20    36    1
@<TRIPOS>SUBSTRUCTURE
1   ZINC000001530621 1     RESIDUE    1   A     ZIN   1
