@<TRIPOS>MOLECULE
ZINC000000057533
41    42    1     0     0
SMALL
USER_CHARGES
@<TRIPOS>ATOM
1      C1     -0.5436    1.7669    0.1592 C.3      1 ZINC000000057533   -0.1800
2      C2     -0.3285    0.2683   -0.0614 C.3      1 ZINC000000057533    0.1000
3      N3     -1.6125   -0.4296    0.0409 N.am     1 ZINC000000057533   -0.6000
4      C4     -2.4379   -0.6241   -1.1537 C.3      1 ZINC000000057533    0.1500
5      C5     -2.0683   -1.9280   -1.8128 C.ar     1 ZINC000000057533   -0.0600
6      C6     -1.0723   -1.9791   -2.7760 C.ar     1 ZINC000000057533   -0.1600
7      C7     -0.7607   -3.1929   -3.3587 C.ar     1 ZINC000000057533    0.0900
8      N8     -1.3984   -4.2927   -3.0086 N.ar     1 ZINC000000057533   -0.4800
9      C9     -2.3507   -4.2816   -2.0965 C.ar     1 ZINC000000057533    0.1000
10     C10    -2.7123   -3.1059   -1.4663 C.ar     1 ZINC000000057533   -0.1500
11     C11    -2.0345   -0.8928    1.2342 C.2      1 ZINC000000057533    0.5300
12     O12    -3.0514   -1.5500    1.3044 O.2      1 ZINC000000057533   -0.5300
13     C13    -1.2428   -0.5940    2.4812 C.3      1 ZINC000000057533   -0.0700
14     H14    -0.6548    0.3113    2.3301 H        1 ZINC000000057533    0.1100
15     C15    -0.3065   -1.7656    2.7839 C.3      1 ZINC000000057533    0.0900
16     O16     0.6513   -1.8941    1.7312 O.3      1 ZINC000000057533   -0.5700
17     C17    -2.1862   -0.3928    3.6390 C.ar     1 ZINC000000057533   -0.0900
18     C18    -3.0349   -1.4136    4.0245 C.ar     1 ZINC000000057533   -0.0800
19     C19    -3.9003   -1.2291    5.0866 C.ar     1 ZINC000000057533   -0.1200
20     C20    -3.9166   -0.0239    5.7634 C.ar     1 ZINC000000057533   -0.1100
21     C21    -3.0673    0.9966    5.3785 C.ar     1 ZINC000000057533   -0.1200
22     C22    -2.1989    0.8106    4.3192 C.ar     1 ZINC000000057533   -0.1100
23     H23     0.4118    2.2861    0.0830 H        1 ZINC000000057533    0.0700
24     H24    -1.2273    2.1512   -0.5977 H        1 ZINC000000057533    0.0600
25     H25    -0.9684    1.9311    1.1495 H        1 ZINC000000057533    0.0600
26     H26     0.0963    0.1041   -1.0518 H        1 ZINC000000057533    0.0800
27     H27     0.3553   -0.1160    0.6955 H        1 ZINC000000057533    0.1000
28     H28    -3.4898   -0.6462   -0.8690 H        1 ZINC000000057533    0.0900
29     H29    -2.2673    0.1965   -1.8506 H        1 ZINC000000057533    0.0900
30     H30    -0.5469   -1.0817   -3.0675 H        1 ZINC000000057533    0.1300
31     H31     0.0139   -3.2412   -4.1098 H        1 ZINC000000057533    0.1500
32     H32    -2.8511   -5.2026   -1.8360 H        1 ZINC000000057533    0.1500
33     H33    -3.4928   -3.1033   -0.7198 H        1 ZINC000000057533    0.1400
34     H34     0.2109   -1.5833    3.7257 H        1 ZINC000000057533    0.0600
35     H35    -0.8876   -2.6846    2.8605 H        1 ZINC000000057533    0.0600
36     H36     1.2790   -2.6189    1.8569 H        1 ZINC000000057533    0.3900
37     H37    -3.0221   -2.3552    3.4957 H        1 ZINC000000057533    0.1300
38     H38    -4.5638   -2.0264    5.3873 H        1 ZINC000000057533    0.1200
39     H39    -4.5932    0.1205    6.5927 H        1 ZINC000000057533    0.1200
40     H40    -3.0803    1.9383    5.9072 H        1 ZINC000000057533    0.1200
41     H41    -1.5353    1.6078    4.0185 H        1 ZINC000000057533    0.1200
@<TRIPOS>BOND
1     1     2     1
2     1     23    1
3     1     24    1
4     1     25    1
5     2     3     1
6     2     26    1
7     2     27    1
8     3     4     1
9     3     11    am
10    4     5     1
11    4     28    1
12    4     29    1
13    5     10    ar
14    5     6     ar
15    6     7     ar
16    6     30    1
17    7     8     ar
18    7     31    1
19    8     9     ar
20    9     10    ar
21    9     32    1
22    10    33    1
23    11    12    2
24    11    13    1
25    13    14    1
26    13    15    1
27    13    17    1
28    15    16    1
29    15    34    1
30    15    35    1
31    16    36    1
32    17    22    ar
33    17    18    ar
34    18    19    ar
35    18    37    1
36    19    20    ar
37    19    38    1
38    20    21    ar
39    20    39    1
40    21    22    ar
41    21    40    1
42    22    41    1
@<TRIPOS>SUBSTRUCTURE
1   ZINC000000057533 1     RESIDUE    1   A     ZIN   1
